Enamine T0505-3993
 OpenBabel04062209303D

 41 43  0  0  0  0  0  0  0  0999 V2000
   -0.6820    1.7120   -1.5450 S   0  0  0  0  0  0  0  0  0  0  0  0
   -0.6230   -0.0980    1.9850 C   0  0  0  0  0  0  0  0  0  0  0  0
    0.4710    1.3430   -0.3630 N   0  0  0  0  0  0  0  0  0  0  0  0
    0.2270   -0.7480    0.9750 C   0  0  0  0  0  0  0  0  0  0  0  0
    0.7640   -0.0360   -0.1060 C   0  0  0  0  0  0  0  0  0  0  0  0
   -2.2150    1.1960   -0.7780 C   0  0  0  0  0  0  0  0  0  0  0  0
   -1.7610   -0.7620    2.3160 N   0  0  0  0  0  0  0  0  0  0  0  0
   -0.7110    3.1610   -1.6750 O   0  0  0  0  0  0  0  0  0  0  0  0
   -0.4500    0.8960   -2.7250 O   0  0  0  0  0  0  0  0  0  0  0  0
   -0.3180    0.9830    2.4780 O   0  0  0  0  0  0  0  0  0  0  0  0
   -2.6570   -0.1100   -0.9860 C   0  0  0  0  0  0  0  0  0  0  0  0
   -2.9510    2.1020   -0.0300 C   0  0  0  0  0  0  0  0  0  0  0  0
   -2.8010   -0.4770    3.2120 C   0  0  0  0  0  0  0  0  0  0  0  0
   -4.6120    0.3870    0.3480 C   0  0  0  0  0  0  0  0  0  0  0  0
   -3.8650   -0.5130   -0.4130 C   0  0  0  0  0  0  0  0  0  0  0  0
   -4.1570    1.6920    0.5400 C   0  0  0  0  0  0  0  0  0  0  0  0
   -5.7530   -0.0810    0.8590 F   0  0  0  0  0  0  0  0  0  0  0  0
    0.5200   -2.1120    1.1300 C   0  0  0  0  0  0  0  0  0  0  0  0
    1.5770   -0.7060   -1.0290 C   0  0  0  0  0  0  0  0  0  0  0  0
   -3.8580   -1.3900    3.3310 C   0  0  0  0  0  0  0  0  0  0  0  0
   -2.8230    0.6860    3.9880 C   0  0  0  0  0  0  0  0  0  0  0  0
    1.3360   -2.7660    0.2080 C   0  0  0  0  0  0  0  0  0  0  0  0
    1.8650   -2.0630   -0.8720 C   0  0  0  0  0  0  0  0  0  0  0  0
   -4.9170   -1.1470    4.2100 C   0  0  0  0  0  0  0  0  0  0  0  0
   -3.8840    0.9270    4.8680 C   0  0  0  0  0  0  0  0  0  0  0  0
   -4.9290    0.0130    4.9780 C   0  0  0  0  0  0  0  0  0  0  0  0
    0.9410    2.0760    0.1490 H   0  0  0  0  0  0  0  0  0  0  0  0
   -1.8820   -1.6330    1.8190 H   0  0  0  0  0  0  0  0  0  0  0  0
   -2.0750   -0.7980   -1.5800 H   0  0  0  0  0  0  0  0  0  0  0  0
   -2.5960    3.1120    0.1100 H   0  0  0  0  0  0  0  0  0  0  0  0
   -4.2210   -1.5220   -0.5590 H   0  0  0  0  0  0  0  0  0  0  0  0
   -4.7380    2.3850    1.1300 H   0  0  0  0  0  0  0  0  0  0  0  0
    0.1110   -2.6580    1.9680 H   0  0  0  0  0  0  0  0  0  0  0  0
    1.9850   -0.1670   -1.8710 H   0  0  0  0  0  0  0  0  0  0  0  0
   -3.8540   -2.2920    2.7370 H   0  0  0  0  0  0  0  0  0  0  0  0
   -2.0180    1.4010    3.9080 H   0  0  0  0  0  0  0  0  0  0  0  0
    1.5580   -3.8160    0.3310 H   0  0  0  0  0  0  0  0  0  0  0  0
    2.4980   -2.5670   -1.5870 H   0  0  0  0  0  0  0  0  0  0  0  0
   -5.7250   -1.8590    4.2930 H   0  0  0  0  0  0  0  0  0  0  0  0
   -3.8930    1.8270    5.4650 H   0  0  0  0  0  0  0  0  0  0  0  0
   -5.7460    0.2040    5.6580 H   0  0  0  0  0  0  0  0  0  0  0  0
  1  3  1  0  0  0  0
  1  6  1  0  0  0  0
  1  8  2  0  0  0  0
  1  9  2  0  0  0  0
  2  4  1  0  0  0  0
  2  7  1  0  0  0  0
  2 10  2  0  0  0  0
  3  5  1  0  0  0  0
  3 27  1  0  0  0  0
  4  5  2  0  0  0  0
  4 18  1  0  0  0  0
  5 19  1  0  0  0  0
  6 11  2  0  0  0  0
  6 12  1  0  0  0  0
  7 13  1  0  0  0  0
  7 28  1  0  0  0  0
 11 15  1  0  0  0  0
 11 29  1  0  0  0  0
 12 16  2  0  0  0  0
 12 30  1  0  0  0  0
 13 20  2  0  0  0  0
 13 21  1  0  0  0  0
 14 15  2  0  0  0  0
 14 16  1  0  0  0  0
 14 17  1  0  0  0  0
 15 31  1  0  0  0  0
 16 32  1  0  0  0  0
 18 22  2  0  0  0  0
 18 33  1  0  0  0  0
 19 23  2  0  0  0  0
 19 34  1  0  0  0  0
 20 24  1  0  0  0  0
 20 35  1  0  0  0  0
 21 25  2  0  0  0  0
 21 36  1  0  0  0  0
 22 23  1  0  0  0  0
 22 37  1  0  0  0  0
 23 38  1  0  0  0  0
 24 26  2  0  0  0  0
 24 39  1  0  0  0  0
 25 26  1  0  0  0  0
 25 40  1  0  0  0  0
 26 41  1  0  0  0  0
M  END
>  <$CLUSTER>
958

>  <INDEX>
411247

$$$$
