Chem T&I AMSACS-17229
 OpenBabel04062209303D

 35 37  0  0  0  0  0  0  0  0999 V2000
   -1.1650   -0.7570    1.5370 S   0  0  0  0  0  0  0  0  0  0  0  0
   -0.3670    0.1270    0.2380 C   0  0  0  0  0  0  0  0  0  0  0  0
    0.6070   -0.4650   -0.6080 C   0  0  0  0  0  0  0  0  0  0  0  0
    0.1680   -1.1970    2.5020 N   0  0  0  0  0  0  0  0  0  0  0  0
    1.0620   -1.7280   -0.5670 N   0  0  0  0  0  0  0  0  0  0  0  0
    2.1840   -1.8760   -1.7800 S   0  0  0  0  0  0  0  0  0  0  0  0
    1.2530    0.3500   -1.7060 C   0  0  0  0  0  0  0  0  0  0  0  0
    1.0730   -2.2150    2.0210 C   0  0  0  0  0  0  0  0  0  0  0  0
    2.1520   -0.3450   -2.4200 N   0  0  0  0  0  0  0  0  0  0  0  0
   -1.9760    0.1810    2.2880 O   0  0  0  0  0  0  0  0  0  0  0  0
   -1.7480   -1.9410    0.9400 O   0  0  0  0  0  0  0  0  0  0  0  0
   -0.6830    1.4750   -0.0070 C   0  0  0  0  0  0  0  0  0  0  0  0
    2.3690   -1.8700    1.5990 C   0  0  0  0  0  0  0  0  0  0  0  0
   -0.0720    2.2280   -1.0370 C   0  0  0  0  0  0  0  0  0  0  0  0
    0.9000    1.7060   -1.9080 C   0  0  0  0  0  0  0  0  0  0  0  0
    0.6340   -3.5410    1.9500 C   0  0  0  0  0  0  0  0  0  0  0  0
    3.2120   -2.8720    1.1080 C   0  0  0  0  0  0  0  0  0  0  0  0
    1.4840   -4.5300    1.4590 C   0  0  0  0  0  0  0  0  0  0  0  0
    2.7690   -4.1960    1.0380 C   0  0  0  0  0  0  0  0  0  0  0  0
    2.7040   -0.5440    1.7090 O   0  0  0  0  0  0  0  0  0  0  0  0
    1.0110   -5.9450    1.3860 C   0  0  0  0  0  0  0  0  0  0  0  0
    3.9970   -0.1610    1.2560 C   0  0  0  0  0  0  0  0  0  0  0  0
    0.3230   -0.7530    3.3960 H   0  0  0  0  0  0  0  0  0  0  0  0
   -1.4220    1.9550    0.6170 H   0  0  0  0  0  0  0  0  0  0  0  0
   -0.3680    3.2590   -1.1610 H   0  0  0  0  0  0  0  0  0  0  0  0
    1.3510    2.3040   -2.6860 H   0  0  0  0  0  0  0  0  0  0  0  0
   -0.3630   -3.7980    2.2760 H   0  0  0  0  0  0  0  0  0  0  0  0
    4.2100   -2.6220    0.7810 H   0  0  0  0  0  0  0  0  0  0  0  0
    3.4260   -4.9630    0.6560 H   0  0  0  0  0  0  0  0  0  0  0  0
   -0.0120   -6.0060    1.7570 H   0  0  0  0  0  0  0  0  0  0  0  0
    1.6570   -6.5760    1.9960 H   0  0  0  0  0  0  0  0  0  0  0  0
    1.0430   -6.2860    0.3510 H   0  0  0  0  0  0  0  0  0  0  0  0
    4.1300    0.9110    1.4010 H   0  0  0  0  0  0  0  0  0  0  0  0
    4.0960   -0.4000    0.1970 H   0  0  0  0  0  0  0  0  0  0  0  0
    4.7550   -0.7010    1.8230 H   0  0  0  0  0  0  0  0  0  0  0  0
  1  2  1  0  0  0  0
  1  4  1  0  0  0  0
  1 10  2  0  0  0  0
  1 11  2  0  0  0  0
  2  3  1  0  0  0  0
  2 12  2  0  0  0  0
  3  5  2  0  0  0  0
  3  7  1  0  0  0  0
  4  8  1  0  0  0  0
  4 23  1  0  0  0  0
  5  6  1  0  0  0  0
  6  9  1  0  0  0  0
  7  9  2  0  0  0  0
  7 15  1  0  0  0  0
  8 13  2  0  0  0  0
  8 16  1  0  0  0  0
 12 14  1  0  0  0  0
 12 24  1  0  0  0  0
 13 17  1  0  0  0  0
 13 20  1  0  0  0  0
 14 15  2  0  0  0  0
 14 25  1  0  0  0  0
 15 26  1  0  0  0  0
 16 18  2  0  0  0  0
 16 27  1  0  0  0  0
 17 19  2  0  0  0  0
 17 28  1  0  0  0  0
 18 19  1  0  0  0  0
 18 21  1  0  0  0  0
 19 29  1  0  0  0  0
 20 22  1  0  0  0  0
 21 30  1  0  0  0  0
 21 31  1  0  0  0  0
 21 32  1  0  0  0  0
 22 33  1  0  0  0  0
 22 34  1  0  0  0  0
 22 35  1  0  0  0  0
M  END
>  <$CLUSTER>
797

>  <INDEX>
520507

$$$$
