Specs AP-866/42442546
 OpenBabel04062209303D

 39 40  0  0  0  0  0  0  0  0999 V2000
    3.0750    2.5510   -0.3010 S   0  0  0  0  0  0  0  0  0  0  0  0
   -1.7120    0.0990    0.4150 S   0  0  0  0  0  0  0  0  0  0  0  0
    2.1580    1.0310   -0.2030 C   0  0  0  0  0  0  0  0  0  0  0  0
    5.8440   -1.5840    3.2050 C   0  0  0  0  0  0  0  0  0  0  0  0
    0.7880    1.1270    0.0390 C   0  0  0  0  0  0  0  0  0  0  0  0
    3.9540    2.5640    1.1220 N   0  0  0  0  0  0  0  0  0  0  0  0
    0.0180   -0.0360    0.0860 C   0  0  0  0  0  0  0  0  0  0  0  0
    5.9490   -0.4060    2.2830 C   0  0  0  0  0  0  0  0  0  0  0  0
    2.1470    3.6660   -0.2280 O   0  0  0  0  0  0  0  0  0  0  0  0
    4.0080    2.4720   -1.4100 O   0  0  0  0  0  0  0  0  0  0  0  0
   -2.2330   -1.2350    0.6450 O   0  0  0  0  0  0  0  0  0  0  0  0
   -1.8820    1.1380    1.4120 O   0  0  0  0  0  0  0  0  0  0  0  0
    2.7500   -0.2190   -0.3900 C   0  0  0  0  0  0  0  0  0  0  0  0
    5.0430    1.6060    1.2950 C   0  0  0  0  0  0  0  0  0  0  0  0
    4.9100    0.5180    2.1640 C   0  0  0  0  0  0  0  0  0  0  0  0
    0.6010   -1.2900   -0.0930 C   0  0  0  0  0  0  0  0  0  0  0  0
    6.8420   -1.5650    4.1300 F   0  0  0  0  0  0  0  0  0  0  0  0
    5.9720   -2.7500    2.5150 F   0  0  0  0  0  0  0  0  0  0  0  0
    4.6750   -1.6730    3.8990 F   0  0  0  0  0  0  0  0  0  0  0  0
    1.9720   -1.3770   -0.3340 C   0  0  0  0  0  0  0  0  0  0  0  0
   -2.3850    0.6810   -1.1190 C   0  0  0  0  0  0  0  0  0  0  0  0
    7.1160   -0.2470    1.5370 C   0  0  0  0  0  0  0  0  0  0  0  0
    7.2470    0.8380    0.6710 C   0  0  0  0  0  0  0  0  0  0  0  0
    6.2120    1.7660    0.5480 C   0  0  0  0  0  0  0  0  0  0  0  0
    4.2470   -0.4000   -0.6690 C   0  0  0  0  0  0  0  0  0  0  0  0
    0.3270    2.0920    0.1890 H   0  0  0  0  0  0  0  0  0  0  0  0
    3.7350    3.2260    1.8530 H   0  0  0  0  0  0  0  0  0  0  0  0
    4.0060    0.3930    2.7410 H   0  0  0  0  0  0  0  0  0  0  0  0
   -0.0030   -2.1840   -0.0460 H   0  0  0  0  0  0  0  0  0  0  0  0
    2.4330   -2.3430   -0.4780 H   0  0  0  0  0  0  0  0  0  0  0  0
   -2.2660   -0.0880   -1.8830 H   0  0  0  0  0  0  0  0  0  0  0  0
   -1.8580    1.5840   -1.4280 H   0  0  0  0  0  0  0  0  0  0  0  0
   -3.4440    0.9040   -0.9900 H   0  0  0  0  0  0  0  0  0  0  0  0
    7.9180   -0.9640    1.6300 H   0  0  0  0  0  0  0  0  0  0  0  0
    8.1520    0.9600    0.0940 H   0  0  0  0  0  0  0  0  0  0  0  0
    6.3150    2.6060   -0.1230 H   0  0  0  0  0  0  0  0  0  0  0  0
    4.7340    0.5750   -0.6860 H   0  0  0  0  0  0  0  0  0  0  0  0
    4.3800   -0.8900   -1.6340 H   0  0  0  0  0  0  0  0  0  0  0  0
    4.6910   -1.0140    0.1150 H   0  0  0  0  0  0  0  0  0  0  0  0
  1  3  1  0  0  0  0
  1  6  1  0  0  0  0
  1  9  2  0  0  0  0
  1 10  2  0  0  0  0
  2  7  1  0  0  0  0
  2 11  2  0  0  0  0
  2 12  2  0  0  0  0
  2 21  1  0  0  0  0
  3  5  2  0  0  0  0
  3 13  1  0  0  0  0
  4  8  1  0  0  0  0
  4 17  1  0  0  0  0
  4 18  1  0  0  0  0
  4 19  1  0  0  0  0
  5  7  1  0  0  0  0
  5 26  1  0  0  0  0
  6 14  1  0  0  0  0
  6 27  1  0  0  0  0
  7 16  2  0  0  0  0
  8 15  2  0  0  0  0
  8 22  1  0  0  0  0
 13 20  2  0  0  0  0
 13 25  1  0  0  0  0
 14 15  1  0  0  0  0
 14 24  2  0  0  0  0
 15 28  1  0  0  0  0
 16 20  1  0  0  0  0
 16 29  1  0  0  0  0
 20 30  1  0  0  0  0
 21 31  1  0  0  0  0
 21 32  1  0  0  0  0
 21 33  1  0  0  0  0
 22 23  2  0  0  0  0
 22 34  1  0  0  0  0
 23 24  1  0  0  0  0
 23 35  1  0  0  0  0
 24 36  1  0  0  0  0
 25 37  1  0  0  0  0
 25 38  1  0  0  0  0
 25 39  1  0  0  0  0
M  END
>  <$CLUSTER>
826

>  <INDEX>
533907

$$$$
