Specs AN-648/40682295
 OpenBabel04062209303D

 39 40  0  0  0  0  0  0  0  0999 V2000
    1.1660    0.6790   -0.8630 N   0  0  0  0  0  0  0  0  0  0  0  0
    0.9360    0.3810   -2.1000 C   0  0  0  0  0  0  0  0  0  0  0  0
    1.8480    0.8640   -3.1840 C   0  0  0  0  0  0  0  0  0  0  0  0
   -1.0580   -1.4330   -6.2110 C   0  0  0  0  0  0  0  0  0  0  0  0
   -0.4420   -1.5660    1.6150 C   0  0  0  0  0  0  0  0  0  0  0  0
    1.5630    0.5170   -4.5210 C   0  0  0  0  0  0  0  0  0  0  0  0
    0.4520   -0.2530   -4.7500 O   0  0  0  0  0  0  0  0  0  0  0  0
   -1.5620   -0.8150    1.9680 C   0  0  0  0  0  0  0  0  0  0  0  0
    0.4610   -1.0730    0.6720 C   0  0  0  0  0  0  0  0  0  0  0  0
   -1.7420   -1.7790   -5.2520 O   0  0  0  0  0  0  0  0  0  0  0  0
    0.2460    0.1730    0.0700 C   0  0  0  0  0  0  0  0  0  0  0  0
   -1.7780    0.4310    1.3820 C   0  0  0  0  0  0  0  0  0  0  0  0
    0.1620   -0.6040   -6.0980 C   0  0  0  0  0  0  0  0  0  0  0  0
   -1.3420   -1.7760   -7.5140 N   0  0  0  0  0  0  0  0  0  0  0  0
   -0.8760    0.9260    0.4390 C   0  0  0  0  0  0  0  0  0  0  0  0
    2.9540    1.6420   -2.8660 C   0  0  0  0  0  0  0  0  0  0  0  0
   -0.2020   -2.9010    2.2420 C   0  0  0  0  0  0  0  0  0  0  0  0
   -2.5340   -1.3400    2.9740 C   0  0  0  0  0  0  0  0  0  0  0  0
    2.4260    0.9770   -5.5240 C   0  0  0  0  0  0  0  0  0  0  0  0
    3.8020    2.0910   -3.8770 C   0  0  0  0  0  0  0  0  0  0  0  0
    3.5380    1.7590   -5.2020 C   0  0  0  0  0  0  0  0  0  0  0  0
    0.0770   -0.2230   -2.3540 H   0  0  0  0  0  0  0  0  0  0  0  0
    1.3300   -1.6560    0.4050 H   0  0  0  0  0  0  0  0  0  0  0  0
   -2.6440    1.0140    1.6580 H   0  0  0  0  0  0  0  0  0  0  0  0
    0.0200    0.3090   -6.6760 H   0  0  0  0  0  0  0  0  0  0  0  0
    1.0050   -1.1630   -6.5040 H   0  0  0  0  0  0  0  0  0  0  0  0
   -2.1520   -2.3430   -7.7220 H   0  0  0  0  0  0  0  0  0  0  0  0
   -0.7410   -1.4610   -8.2620 H   0  0  0  0  0  0  0  0  0  0  0  0
   -1.0440    1.8940   -0.0080 H   0  0  0  0  0  0  0  0  0  0  0  0
    3.1570    1.8990   -1.8370 H   0  0  0  0  0  0  0  0  0  0  0  0
   -1.0030   -3.1200    2.9480 H   0  0  0  0  0  0  0  0  0  0  0  0
    0.7530   -2.8890    2.7680 H   0  0  0  0  0  0  0  0  0  0  0  0
   -0.1800   -3.6680    1.4670 H   0  0  0  0  0  0  0  0  0  0  0  0
   -2.2050   -2.3190    3.3210 H   0  0  0  0  0  0  0  0  0  0  0  0
   -3.5190   -1.4290    2.5160 H   0  0  0  0  0  0  0  0  0  0  0  0
   -2.5880   -0.6540    3.8200 H   0  0  0  0  0  0  0  0  0  0  0  0
    2.2300    0.7250   -6.5560 H   0  0  0  0  0  0  0  0  0  0  0  0
    4.6630    2.6960   -3.6320 H   0  0  0  0  0  0  0  0  0  0  0  0
    4.1950    2.1070   -5.9850 H   0  0  0  0  0  0  0  0  0  0  0  0
  1  2  2  0  0  0  0
  1 11  1  0  0  0  0
  2  3  1  0  0  0  0
  2 22  1  0  0  0  0
  3  6  2  0  0  0  0
  3 16  1  0  0  0  0
  4 10  2  0  0  0  0
  4 13  1  0  0  0  0
  4 14  1  0  0  0  0
  5  8  1  0  0  0  0
  5  9  2  0  0  0  0
  5 17  1  0  0  0  0
  6  7  1  0  0  0  0
  6 19  1  0  0  0  0
  7 13  1  0  0  0  0
  8 12  2  0  0  0  0
  8 18  1  0  0  0  0
  9 11  1  0  0  0  0
  9 23  1  0  0  0  0
 11 15  2  0  0  0  0
 12 15  1  0  0  0  0
 12 24  1  0  0  0  0
 13 25  1  0  0  0  0
 13 26  1  0  0  0  0
 14 27  1  0  0  0  0
 14 28  1  0  0  0  0
 15 29  1  0  0  0  0
 16 20  2  0  0  0  0
 16 30  1  0  0  0  0
 17 31  1  0  0  0  0
 17 32  1  0  0  0  0
 17 33  1  0  0  0  0
 18 34  1  0  0  0  0
 18 35  1  0  0  0  0
 18 36  1  0  0  0  0
 19 21  2  0  0  0  0
 19 37  1  0  0  0  0
 20 21  1  0  0  0  0
 20 38  1  0  0  0  0
 21 39  1  0  0  0  0
M  END
>  <$CLUSTER>
813

>  <INDEX>
526345

$$$$
