ASDI 150016433
 OpenBabel04062209303D

 17 17  0  0  1  0  0  0  0  0999 V2000
    0.8940    1.4210   -1.1830 N   0  0  0  0  0  0  0  0  0  0  0  0
    0.3610    0.7280   -0.4110 C   0  0  0  0  0  0  0  0  0  0  0  0
   -0.3170   -0.1470    0.5770 C   0  0  1  0  0  0  0  0  0  0  0  0
   -1.5120   -0.8490   -0.0580 C   0  0  0  0  0  0  0  0  0  0  0  0
    0.5740   -1.1530    1.0760 O   0  0  0  0  0  0  0  0  0  0  0  0
   -2.8340   -0.4630    0.3090 C   0  0  0  0  0  0  0  0  0  0  0  0
   -1.3760   -1.8620   -1.0150 C   0  0  0  0  0  0  0  0  0  0  0  0
   -3.9460   -1.0770   -0.2710 C   0  0  0  0  0  0  0  0  0  0  0  0
   -2.4890   -2.4740   -1.5930 C   0  0  0  0  0  0  0  0  0  0  0  0
   -3.7740   -2.0820   -1.2210 C   0  0  0  0  0  0  0  0  0  0  0  0
   -0.6460    0.4920    1.3970 H   0  0  0  0  0  0  0  0  0  0  0  0
    0.8440   -1.6970    0.3320 H   0  0  0  0  0  0  0  0  0  0  0  0
   -2.9780    0.3140    1.0450 H   0  0  0  0  0  0  0  0  0  0  0  0
   -0.3870   -2.1770   -1.3130 H   0  0  0  0  0  0  0  0  0  0  0  0
   -4.9410   -0.7720    0.0170 H   0  0  0  0  0  0  0  0  0  0  0  0
   -2.3550   -3.2520   -2.3300 H   0  0  0  0  0  0  0  0  0  0  0  0
   -4.6350   -2.5560   -1.6680 H   0  0  0  0  0  0  0  0  0  0  0  0
  1  2  3  0  0  0  0
  2  3  1  0  0  0  0
  3  4  1  0  0  0  0
  3  5  1  0  0  0  0
  3 11  1  1  0  0  0
  4  6  2  0  0  0  0
  4  7  1  0  0  0  0
  5 12  1  0  0  0  0
  6  8  1  0  0  0  0
  6 13  1  0  0  0  0
  7  9  2  0  0  0  0
  7 14  1  0  0  0  0
  8 10  2  0  0  0  0
  8 15  1  0  0  0  0
  9 10  1  0  0  0  0
  9 16  1  0  0  0  0
 10 17  1  0  0  0  0
M  END
>  <$CLUSTER>
24

>  <INDEX>
14597

$$$$
