Tripos 1557-01752
 OpenBabel04062209303D

 42 44  0  0  0  0  0  0  0  0999 V2000
    0.2400    0.5420   -1.8580 S   0  0  0  0  0  0  0  0  0  0  0  0
    0.0780    0.2060   -0.1930 C   0  0  0  0  0  0  0  0  0  0  0  0
   -0.9990   -0.3360    0.4550 C   0  0  0  0  0  0  0  0  0  0  0  0
    1.0150    0.4900    0.8300 C   0  0  0  0  0  0  0  0  0  0  0  0
    0.5590    0.1080    2.0320 N   0  0  0  0  0  0  0  0  0  0  0  0
   -0.6690   -0.3900    1.7770 N   0  0  0  0  0  0  0  0  0  0  0  0
   -0.7060   -0.5700   -2.7340 N   0  0  0  0  0  0  0  0  0  0  0  0
   -2.5210   -2.7640   -3.4830 N   0  0  0  0  0  0  0  0  0  0  0  0
    1.6360    0.2840   -2.1440 O   0  0  0  0  0  0  0  0  0  0  0  0
   -0.3370    1.8650   -1.9830 O   0  0  0  0  0  0  0  0  0  0  0  0
   -0.2510   -1.9670   -2.6680 C   0  0  0  0  0  0  0  0  0  0  0  0
   -2.1670   -0.4350   -2.5290 C   0  0  0  0  0  0  0  0  0  0  0  0
   -3.3320   -3.7950   -3.2860 C   0  0  0  0  0  0  0  0  0  0  0  0
   -1.0660   -2.8490   -3.6760 C   0  0  0  0  0  0  0  0  0  0  0  0
   -2.9340   -1.3550   -3.5410 C   0  0  0  0  0  0  0  0  0  0  0  0
   -2.5240   -0.8670   -0.0760 Cl  0  0  0  0  0  0  0  0  0  0  0  0
   -4.7210   -3.6320   -3.1070 C   0  0  0  0  0  0  0  0  0  0  0  0
   -2.8570   -5.1230   -3.2420 C   0  0  0  0  0  0  0  0  0  0  0  0
    2.3510    1.1250    0.7270 C   0  0  0  0  0  0  0  0  0  0  0  0
   -1.4580   -0.8940    2.8750 C   0  0  0  0  0  0  0  0  0  0  0  0
   -5.0740   -6.0120   -2.8630 C   0  0  0  0  0  0  0  0  0  0  0  0
   -5.5800   -4.7200   -2.8990 C   0  0  0  0  0  0  0  0  0  0  0  0
   -3.7110   -6.2130   -3.0340 C   0  0  0  0  0  0  0  0  0  0  0  0
   -5.9530   -6.9900   -2.6610 F   0  0  0  0  0  0  0  0  0  0  0  0
   -0.3980   -2.3460   -1.6570 H   0  0  0  0  0  0  0  0  0  0  0  0
    0.8080   -2.0130   -2.9230 H   0  0  0  0  0  0  0  0  0  0  0  0
   -2.4600    0.6020   -2.6890 H   0  0  0  0  0  0  0  0  0  0  0  0
   -2.4180   -0.7300   -1.5100 H   0  0  0  0  0  0  0  0  0  0  0  0
   -0.8320   -2.5210   -4.6890 H   0  0  0  0  0  0  0  0  0  0  0  0
   -0.7610   -3.8880   -3.5510 H   0  0  0  0  0  0  0  0  0  0  0  0
   -4.0000   -1.2990   -3.3190 H   0  0  0  0  0  0  0  0  0  0  0  0
   -2.7530   -0.9840   -4.5500 H   0  0  0  0  0  0  0  0  0  0  0  0
   -5.1370   -2.6360   -3.1310 H   0  0  0  0  0  0  0  0  0  0  0  0
   -1.8000   -5.3050   -3.3730 H   0  0  0  0  0  0  0  0  0  0  0  0
    2.5580    1.3690   -0.3150 H   0  0  0  0  0  0  0  0  0  0  0  0
    3.1100    0.4360    1.0970 H   0  0  0  0  0  0  0  0  0  0  0  0
    2.3670    2.0370    1.3240 H   0  0  0  0  0  0  0  0  0  0  0  0
   -2.4150   -1.2560    2.4990 H   0  0  0  0  0  0  0  0  0  0  0  0
   -1.6300   -0.0950    3.5960 H   0  0  0  0  0  0  0  0  0  0  0  0
   -0.9250   -1.7120    3.3600 H   0  0  0  0  0  0  0  0  0  0  0  0
   -6.6390   -4.5520   -2.7660 H   0  0  0  0  0  0  0  0  0  0  0  0
   -3.3080   -7.2140   -3.0060 H   0  0  0  0  0  0  0  0  0  0  0  0
  1  2  1  0  0  0  0
  1  7  1  0  0  0  0
  1  9  2  0  0  0  0
  1 10  2  0  0  0  0
  2  3  2  0  0  0  0
  2  4  1  0  0  0  0
  3  6  1  0  0  0  0
  3 16  1  0  0  0  0
  4  5  2  0  0  0  0
  4 19  1  0  0  0  0
  5  6  1  0  0  0  0
  6 20  1  0  0  0  0
  7 11  1  0  0  0  0
  7 12  1  0  0  0  0
  8 13  1  0  0  0  0
  8 14  1  0  0  0  0
  8 15  1  0  0  0  0
 11 14  1  0  0  0  0
 11 25  1  0  0  0  0
 11 26  1  0  0  0  0
 12 15  1  0  0  0  0
 12 27  1  0  0  0  0
 12 28  1  0  0  0  0
 13 17  2  0  0  0  0
 13 18  1  0  0  0  0
 14 29  1  0  0  0  0
 14 30  1  0  0  0  0
 15 31  1  0  0  0  0
 15 32  1  0  0  0  0
 17 22  1  0  0  0  0
 17 33  1  0  0  0  0
 18 23  2  0  0  0  0
 18 34  1  0  0  0  0
 19 35  1  0  0  0  0
 19 36  1  0  0  0  0
 19 37  1  0  0  0  0
 20 38  1  0  0  0  0
 20 39  1  0  0  0  0
 20 40  1  0  0  0  0
 21 22  2  0  0  0  0
 21 23  1  0  0  0  0
 21 24  1  0  0  0  0
 22 41  1  0  0  0  0
 23 42  1  0  0  0  0
M  END
>  <$CLUSTER>
693

>  <INDEX>
469101

$$$$
