Tripos 1518-06794
 OpenBabel04062209303D

 51 54  0  0  1  0  0  0  0  0999 V2000
    0.5650   -0.3340    1.0610 N   0  0  0  0  0  0  0  0  0  0  0  0
   -0.5370   -3.5450   -1.8880 C   0  0  0  0  0  0  0  0  0  0  0  0
    0.1940    0.2220   -0.1360 C   0  0  0  0  0  0  0  0  0  0  0  0
   -0.5980   -0.6010    1.5990 C   0  0  0  0  0  0  0  0  0  0  0  0
    0.0550   -3.0210   -3.1720 C   0  0  0  0  0  0  0  0  0  0  0  0
   -1.1280    0.2950   -0.3450 N   0  0  0  0  0  0  0  0  0  0  0  0
   -2.1660   -3.9700   -1.8110 S   0  0  0  0  0  0  0  0  0  0  0  0
   -1.6600   -0.2570    0.8260 O   0  0  0  0  0  0  0  0  0  0  0  0
    1.3920   -2.6970   -3.1510 N   0  0  0  0  0  0  0  0  0  0  0  0
   -2.0410   -4.4220   -0.1690 C   0  0  0  0  0  0  0  0  0  0  0  0
    0.1200   -3.7380   -0.6780 C   0  0  0  0  0  0  0  0  0  0  0  0
   -0.7660   -4.2490    0.3150 C   0  0  0  0  0  0  0  0  0  0  0  0
    1.6720   -0.3980   -2.0110 N   0  3  2  0  0  0  0  0  0  0  0  0
    1.1810    0.6890   -1.1250 C   0  0  0  0  0  0  0  0  0  0  0  0
   -0.6670   -2.9080   -4.1660 O   0  0  0  0  0  0  0  0  0  0  0  0
   -0.8830   -1.1870    2.8480 C   0  0  0  0  0  0  0  0  0  0  0  0
    2.2970   -2.8150   -1.9870 C   0  0  0  0  0  0  0  0  0  0  0  0
   -3.4620   -5.0330    0.6980 S   0  0  0  0  0  0  0  0  0  0  0  0
    2.5350   -1.4260   -1.3110 C   0  0  0  0  0  0  0  0  0  0  0  0
    2.9720   -0.9750   -4.1220 C   0  0  0  0  0  0  0  0  0  0  0  0
    2.0540   -2.1790   -4.3550 C   0  0  0  0  0  0  0  0  0  0  0  0
    2.3810    0.1200   -3.2430 C   0  0  0  0  0  0  0  0  0  0  0  0
   -2.1960   -1.4060    3.2780 C   0  0  0  0  0  0  0  0  0  0  0  0
    0.1830   -1.5570    3.6780 C   0  0  0  0  0  0  0  0  0  0  0  0
   -2.9910   -4.8440    2.4300 C   0  0  0  0  0  0  0  0  0  0  0  0
   -2.4400   -1.9900    4.5240 C   0  0  0  0  0  0  0  0  0  0  0  0
   -0.0630   -2.1410    4.9230 C   0  0  0  0  0  0  0  0  0  0  0  0
   -1.3750   -2.3560    5.3460 C   0  0  0  0  0  0  0  0  0  0  0  0
    1.1660   -3.5280   -0.5120 H   0  0  0  0  0  0  0  0  0  0  0  0
   -0.4700   -4.4740    1.3290 H   0  0  0  0  0  0  0  0  0  0  0  0
    0.8270   -0.8690   -2.3020 H   0  0  0  0  0  0  0  0  0  0  0  0
    2.0320    1.1150   -0.5930 H   0  0  0  0  0  0  0  0  0  0  0  0
    0.7170    1.4580   -1.7430 H   0  0  0  0  0  0  0  0  0  0  0  0
    3.2540   -3.2170   -2.3200 H   0  0  0  0  0  0  0  0  0  0  0  0
    1.8520   -3.4930   -1.2590 H   0  0  0  0  0  0  0  0  0  0  0  0
    2.2630   -1.4780   -0.2570 H   0  0  0  0  0  0  0  0  0  0  0  0
    3.5850   -1.1480   -1.4020 H   0  0  0  0  0  0  0  0  0  0  0  0
    3.2110   -0.5390   -5.0920 H   0  0  0  0  0  0  0  0  0  0  0  0
    3.8860   -1.3330   -3.6490 H   0  0  0  0  0  0  0  0  0  0  0  0
    1.2820   -1.8830   -5.0650 H   0  0  0  0  0  0  0  0  0  0  0  0
    2.6530   -2.9830   -4.7840 H   0  0  0  0  0  0  0  0  0  0  0  0
    3.1900    0.7770   -2.9230 H   0  0  0  0  0  0  0  0  0  0  0  0
    1.6650    0.6880   -3.8370 H   0  0  0  0  0  0  0  0  0  0  0  0
   -3.0240   -1.1230    2.6450 H   0  0  0  0  0  0  0  0  0  0  0  0
    1.2000   -1.3900    3.3540 H   0  0  0  0  0  0  0  0  0  0  0  0
   -3.8030   -5.1940    3.0680 H   0  0  0  0  0  0  0  0  0  0  0  0
   -2.7920   -3.7930    2.6400 H   0  0  0  0  0  0  0  0  0  0  0  0
   -2.0940   -5.4310    2.6290 H   0  0  0  0  0  0  0  0  0  0  0  0
   -3.4560   -2.1580    4.8510 H   0  0  0  0  0  0  0  0  0  0  0  0
    0.7630   -2.4260    5.5580 H   0  0  0  0  0  0  0  0  0  0  0  0
   -1.5650   -2.8060    6.3090 H   0  0  0  0  0  0  0  0  0  0  0  0
  1  3  1  0  0  0  0
  1  4  2  0  0  0  0
  2  5  1  0  0  0  0
  2  7  1  0  0  0  0
  2 11  2  0  0  0  0
  3  6  2  0  0  0  0
  3 14  1  0  0  0  0
  4  8  1  0  0  0  0
  4 16  1  0  0  0  0
  5  9  1  0  0  0  0
  5 15  2  0  0  0  0
  6  8  1  0  0  0  0
  7 10  1  0  0  0  0
  9 17  1  0  0  0  0
  9 21  1  0  0  0  0
 10 12  2  0  0  0  0
 10 18  1  0  0  0  0
 11 12  1  0  0  0  0
 11 29  1  0  0  0  0
 12 30  1  0  0  0  0
 13 14  1  0  0  0  0
 13 19  1  0  0  0  0
 13 22  1  0  0  0  0
 13 31  1  6  0  0  0
 14 32  1  0  0  0  0
 14 33  1  0  0  0  0
 16 23  2  0  0  0  0
 16 24  1  0  0  0  0
 17 19  1  0  0  0  0
 17 34  1  0  0  0  0
 17 35  1  0  0  0  0
 18 25  1  0  0  0  0
 19 36  1  0  0  0  0
 19 37  1  0  0  0  0
 20 21  1  0  0  0  0
 20 22  1  0  0  0  0
 20 38  1  0  0  0  0
 20 39  1  0  0  0  0
 21 40  1  0  0  0  0
 21 41  1  0  0  0  0
 22 42  1  0  0  0  0
 22 43  1  0  0  0  0
 23 26  1  0  0  0  0
 23 44  1  0  0  0  0
 24 27  2  0  0  0  0
 24 45  1  0  0  0  0
 25 46  1  0  0  0  0
 25 47  1  0  0  0  0
 25 48  1  0  0  0  0
 26 28  2  0  0  0  0
 26 49  1  0  0  0  0
 27 28  1  0  0  0  0
 27 50  1  0  0  0  0
 28 51  1  0  0  0  0
M  CHG  1  13   1
M  END
>  <$CLUSTER>
675

>  <INDEX>
443512

$$$$
