InterBioScreen STOCK5S-48304
 OpenBabel04062209303D

 56 60  0  0  0  0  0  0  0  0999 V2000
    1.3760   -1.3270    1.5410 C   0  0  0  0  0  0  0  0  0  0  0  0
    0.6720   -2.0680    0.6830 C   0  0  0  0  0  0  0  0  0  0  0  0
    0.8540   -3.5360    0.7160 N   0  0  0  0  0  0  0  0  0  0  0  0
    2.3280   -1.9460    2.5140 C   0  0  0  0  0  0  0  0  0  0  0  0
    2.4170   -3.3170    2.4540 N   0  0  0  0  0  0  0  0  0  0  0  0
    1.6810   -4.0410    1.5640 C   0  0  0  0  0  0  0  0  0  0  0  0
    1.1890    0.1350    1.5020 C   0  0  0  0  0  0  0  0  0  0  0  0
   -0.2290   -1.5980   -0.2520 N   0  0  0  0  0  0  0  0  0  0  0  0
    0.2310    0.6780    0.5130 C   0  0  0  0  0  0  0  0  0  0  0  0
   -0.4610   -0.2050   -0.3480 C   0  0  0  0  0  0  0  0  0  0  0  0
    3.3630   -3.9670    3.3940 C   0  0  0  0  0  0  0  0  0  0  0  0
    1.7680   -5.5080    1.5060 C   0  0  0  0  0  0  0  0  0  0  0  0
    2.9780   -1.2680    3.3040 O   0  0  0  0  0  0  0  0  0  0  0  0
    1.8090    0.8640    2.2660 O   0  0  0  0  0  0  0  0  0  0  0  0
    2.6600   -6.1080    0.6170 C   0  0  0  0  0  0  0  0  0  0  0  0
    0.9530   -6.2770    2.3380 C   0  0  0  0  0  0  0  0  0  0  0  0
   -0.9520   -2.4970   -1.1480 C   0  0  0  0  0  0  0  0  0  0  0  0
    4.7830   -3.9930    2.8450 C   0  0  0  0  0  0  0  0  0  0  0  0
    1.9610   -8.2770    1.4280 C   0  0  0  0  0  0  0  0  0  0  0  0
    0.0350    2.0630    0.4550 C   0  0  0  0  0  0  0  0  0  0  0  0
    2.7590   -7.4990    0.5850 C   0  0  0  0  0  0  0  0  0  0  0  0
    1.0570   -7.6680    2.3010 C   0  0  0  0  0  0  0  0  0  0  0  0
   -1.3580    0.3680   -1.2670 C   0  0  0  0  0  0  0  0  0  0  0  0
    5.7380   -4.6640    3.7970 C   0  0  0  0  0  0  0  0  0  0  0  0
    2.1470   -9.6400    1.2960 O   0  0  0  0  0  0  0  0  0  0  0  0
    5.9590   -6.0480    3.7310 C   0  0  0  0  0  0  0  0  0  0  0  0
    6.4050   -3.9210    4.7820 C   0  0  0  0  0  0  0  0  0  0  0  0
    1.3560  -10.4820    2.1270 C   0  0  0  0  0  0  0  0  0  0  0  0
   -0.8600    2.5970   -0.4670 C   0  0  0  0  0  0  0  0  0  0  0  0
   -1.5550    1.7510   -1.3260 C   0  0  0  0  0  0  0  0  0  0  0  0
    7.2790   -4.5460    5.6730 C   0  0  0  0  0  0  0  0  0  0  0  0
    6.8330   -6.6710    4.6230 C   0  0  0  0  0  0  0  0  0  0  0  0
    7.4930   -5.9190    5.5920 C   0  0  0  0  0  0  0  0  0  0  0  0
    3.0350   -4.9910    3.5710 H   0  0  0  0  0  0  0  0  0  0  0  0
    3.3590   -3.4160    4.3350 H   0  0  0  0  0  0  0  0  0  0  0  0
    3.2670   -5.5020   -0.0390 H   0  0  0  0  0  0  0  0  0  0  0  0
    0.2490   -5.8000    3.0040 H   0  0  0  0  0  0  0  0  0  0  0  0
   -0.6590   -3.5270   -0.9440 H   0  0  0  0  0  0  0  0  0  0  0  0
   -0.7120   -2.2490   -2.1820 H   0  0  0  0  0  0  0  0  0  0  0  0
   -2.0240   -2.3860   -0.9870 H   0  0  0  0  0  0  0  0  0  0  0  0
    5.1150   -2.9690    2.6760 H   0  0  0  0  0  0  0  0  0  0  0  0
    4.7860   -4.5370    1.9000 H   0  0  0  0  0  0  0  0  0  0  0  0
    0.5770    2.7150    1.1240 H   0  0  0  0  0  0  0  0  0  0  0  0
    3.4530   -7.9750   -0.0920 H   0  0  0  0  0  0  0  0  0  0  0  0
    0.4390   -8.2730    2.9470 H   0  0  0  0  0  0  0  0  0  0  0  0
   -1.9060   -0.2730   -1.9410 H   0  0  0  0  0  0  0  0  0  0  0  0
    5.4480   -6.6360    2.9830 H   0  0  0  0  0  0  0  0  0  0  0  0
    6.2410   -2.8560    4.8520 H   0  0  0  0  0  0  0  0  0  0  0  0
    1.5990  -11.5250    1.9240 H   0  0  0  0  0  0  0  0  0  0  0  0
    0.3000  -10.3080    1.9200 H   0  0  0  0  0  0  0  0  0  0  0  0
    1.5630  -10.2580    3.1730 H   0  0  0  0  0  0  0  0  0  0  0  0
   -1.0150    3.6650   -0.5160 H   0  0  0  0  0  0  0  0  0  0  0  0
   -2.2500    2.1650   -2.0420 H   0  0  0  0  0  0  0  0  0  0  0  0
    7.7900   -3.9640    6.4260 H   0  0  0  0  0  0  0  0  0  0  0  0
    6.9980   -7.7370    4.5620 H   0  0  0  0  0  0  0  0  0  0  0  0
    8.1710   -6.4010    6.2810 H   0  0  0  0  0  0  0  0  0  0  0  0
  1  2  2  0  0  0  0
  1  4  1  0  0  0  0
  1  7  1  0  0  0  0
  2  3  1  0  0  0  0
  2  8  1  0  0  0  0
  3  6  2  0  0  0  0
  4  5  1  0  0  0  0
  4 13  2  0  0  0  0
  5  6  1  0  0  0  0
  5 11  1  0  0  0  0
  6 12  1  0  0  0  0
  7  9  1  0  0  0  0
  7 14  2  0  0  0  0
  8 10  1  0  0  0  0
  8 17  1  0  0  0  0
  9 10  2  0  0  0  0
  9 20  1  0  0  0  0
 10 23  1  0  0  0  0
 11 18  1  0  0  0  0
 11 34  1  0  0  0  0
 11 35  1  0  0  0  0
 12 15  2  0  0  0  0
 12 16  1  0  0  0  0
 15 21  1  0  0  0  0
 15 36  1  0  0  0  0
 16 22  2  0  0  0  0
 16 37  1  0  0  0  0
 17 38  1  0  0  0  0
 17 39  1  0  0  0  0
 17 40  1  0  0  0  0
 18 24  1  0  0  0  0
 18 41  1  0  0  0  0
 18 42  1  0  0  0  0
 19 21  2  0  0  0  0
 19 22  1  0  0  0  0
 19 25  1  0  0  0  0
 20 29  2  0  0  0  0
 20 43  1  0  0  0  0
 21 44  1  0  0  0  0
 22 45  1  0  0  0  0
 23 30  2  0  0  0  0
 23 46  1  0  0  0  0
 24 26  1  0  0  0  0
 24 27  2  0  0  0  0
 25 28  1  0  0  0  0
 26 32  2  0  0  0  0
 26 47  1  0  0  0  0
 27 31  1  0  0  0  0
 27 48  1  0  0  0  0
 28 49  1  0  0  0  0
 28 50  1  0  0  0  0
 28 51  1  0  0  0  0
 29 30  1  0  0  0  0
 29 52  1  0  0  0  0
 30 53  1  0  0  0  0
 31 33  2  0  0  0  0
 31 54  1  0  0  0  0
 32 33  1  0  0  0  0
 32 55  1  0  0  0  0
 33 56  1  0  0  0  0
M  END
>  <$CLUSTER>
574

>  <INDEX>
377513

$$$$
