Chem T&I PMOS-0027433
 OpenBabel04062209303D

 53 57  0  0  0  0  0  0  0  0999 V2000
    4.7100    5.2160   -4.1210 N   0  0  0  0  0  0  0  0  0  0  0  0
    4.3450    4.9590   -2.8620 N   0  0  0  0  0  0  0  0  0  0  0  0
    4.3260    4.3880   -5.0960 N   0  0  0  0  0  0  0  0  0  0  0  0
    0.6460    0.0230    0.3080 C   0  0  0  0  0  0  0  0  0  0  0  0
    3.6440    3.8350   -3.0450 C   0  0  0  0  0  0  0  0  0  0  0  0
    3.6350    3.4930   -4.3960 C   0  0  0  0  0  0  0  0  0  0  0  0
    1.5020   -2.7060    2.6730 N   0  3  0  0  0  0  0  0  0  0  0  0
    1.4330    1.1220   -0.2760 C   0  0  0  0  0  0  0  0  0  0  0  0
   -0.6820   -0.2630   -0.0730 C   0  0  0  0  0  0  0  0  0  0  0  0
    2.9790    3.0360   -2.1090 C   0  0  0  0  0  0  0  0  0  0  0  0
    1.3490   -0.7850    1.2180 C   0  0  0  0  0  0  0  0  0  0  0  0
    2.2970    1.8860   -2.5190 C   0  0  0  0  0  0  0  0  0  0  0  0
    0.7520   -1.9220    1.7480 C   0  0  0  0  0  0  0  0  0  0  0  0
   -1.4530    0.5450   -0.9010 N   0  0  0  0  0  0  0  0  0  0  0  0
    1.6130    1.0400   -1.6370 N   0  0  0  0  0  0  0  0  0  0  0  0
    2.9600    2.3510   -4.8140 C   0  0  0  0  0  0  0  0  0  0  0  0
    2.2950    1.5520   -3.8820 C   0  0  0  0  0  0  0  0  0  0  0  0
   -1.2390   -1.4410    0.4710 C   0  0  0  0  0  0  0  0  0  0  0  0
    0.9150   -3.7060    3.1090 O   0  5  0  0  0  0  0  0  0  0  0  0
    5.5190    6.3880   -4.4240 C   0  0  0  0  0  0  0  0  0  0  0  0
    2.6540   -2.3810    2.9940 O   0  0  0  0  0  0  0  0  0  0  0  0
    1.9050    1.9940    0.4450 O   0  0  0  0  0  0  0  0  0  0  0  0
   -0.5400   -2.2570    1.3670 C   0  0  0  0  0  0  0  0  0  0  0  0
   -3.7570    1.9780   -1.5780 O   0  0  0  0  0  0  0  0  0  0  0  0
   -1.4060    1.9970   -0.8170 C   0  0  0  0  0  0  0  0  0  0  0  0
   -2.3780   -0.0540   -1.8520 C   0  0  0  0  0  0  0  0  0  0  0  0
   -3.7720    0.5490   -1.5670 C   0  0  0  0  0  0  0  0  0  0  0  0
   -2.8550    2.4840   -0.5910 C   0  0  0  0  0  0  0  0  0  0  0  0
    5.9170    7.2520   -3.3960 C   0  0  0  0  0  0  0  0  0  0  0  0
    5.9000    6.6550   -5.7460 C   0  0  0  0  0  0  0  0  0  0  0  0
    6.6760    7.7810   -6.0320 C   0  0  0  0  0  0  0  0  0  0  0  0
    6.6930    8.3750   -3.6920 C   0  0  0  0  0  0  0  0  0  0  0  0
    7.0720    8.6400   -5.0070 C   0  0  0  0  0  0  0  0  0  0  0  0
    2.9920    3.3090   -1.0640 H   0  0  0  0  0  0  0  0  0  0  0  0
    2.3560   -0.5210    1.5060 H   0  0  0  0  0  0  0  0  0  0  0  0
    1.1810    0.2380   -2.0720 H   0  0  0  0  0  0  0  0  0  0  0  0
    2.9500    2.0820   -5.8600 H   0  0  0  0  0  0  0  0  0  0  0  0
    1.7730    0.6670   -4.2140 H   0  0  0  0  0  0  0  0  0  0  0  0
   -2.2420   -1.7220    0.1850 H   0  0  0  0  0  0  0  0  0  0  0  0
   -1.0060   -3.1480    1.7620 H   0  0  0  0  0  0  0  0  0  0  0  0
   -1.0120    2.4130   -1.7440 H   0  0  0  0  0  0  0  0  0  0  0  0
   -0.7740    2.3030    0.0160 H   0  0  0  0  0  0  0  0  0  0  0  0
   -2.4040   -1.1360   -1.7190 H   0  0  0  0  0  0  0  0  0  0  0  0
   -2.0700    0.1790   -2.8710 H   0  0  0  0  0  0  0  0  0  0  0  0
   -4.4680    0.2000   -2.3300 H   0  0  0  0  0  0  0  0  0  0  0  0
   -4.1070    0.2090   -0.5870 H   0  0  0  0  0  0  0  0  0  0  0  0
   -3.1880    2.1500    0.3920 H   0  0  0  0  0  0  0  0  0  0  0  0
   -2.8690    3.5730   -0.6290 H   0  0  0  0  0  0  0  0  0  0  0  0
    5.6240    7.0500   -2.3760 H   0  0  0  0  0  0  0  0  0  0  0  0
    5.5940    5.9920   -6.5420 H   0  0  0  0  0  0  0  0  0  0  0  0
    6.9700    7.9870   -7.0500 H   0  0  0  0  0  0  0  0  0  0  0  0
    7.0010    9.0410   -2.8990 H   0  0  0  0  0  0  0  0  0  0  0  0
    7.6720    9.5100   -5.2320 H   0  0  0  0  0  0  0  0  0  0  0  0
  1  2  1  0  0  0  0
  1  3  1  0  0  0  0
  1 20  1  0  0  0  0
  2  5  2  0  0  0  0
  3  6  2  0  0  0  0
  4  8  1  0  0  0  0
  4  9  1  0  0  0  0
  4 11  2  0  0  0  0
  5  6  1  0  0  0  0
  5 10  1  0  0  0  0
  6 16  1  0  0  0  0
  7 13  1  0  0  0  0
  7 19  1  0  0  0  0
  7 21  2  0  0  0  0
  8 15  1  0  0  0  0
  8 22  2  0  0  0  0
  9 14  1  0  0  0  0
  9 18  2  0  0  0  0
 10 12  2  0  0  0  0
 10 34  1  0  0  0  0
 11 13  1  0  0  0  0
 11 35  1  0  0  0  0
 12 15  1  0  0  0  0
 12 17  1  0  0  0  0
 13 23  2  0  0  0  0
 14 25  1  0  0  0  0
 14 26  1  0  0  0  0
 15 36  1  0  0  0  0
 16 17  2  0  0  0  0
 16 37  1  0  0  0  0
 17 38  1  0  0  0  0
 18 23  1  0  0  0  0
 18 39  1  0  0  0  0
 20 29  1  0  0  0  0
 20 30  2  0  0  0  0
 23 40  1  0  0  0  0
 24 27  1  0  0  0  0
 24 28  1  0  0  0  0
 25 28  1  0  0  0  0
 25 41  1  0  0  0  0
 25 42  1  0  0  0  0
 26 27  1  0  0  0  0
 26 43  1  0  0  0  0
 26 44  1  0  0  0  0
 27 45  1  0  0  0  0
 27 46  1  0  0  0  0
 28 47  1  0  0  0  0
 28 48  1  0  0  0  0
 29 32  2  0  0  0  0
 29 49  1  0  0  0  0
 30 31  1  0  0  0  0
 30 50  1  0  0  0  0
 31 33  2  0  0  0  0
 31 51  1  0  0  0  0
 32 33  1  0  0  0  0
 32 52  1  0  0  0  0
 33 53  1  0  0  0  0
M  CHG  2   7   1  19  -1
M  END
>  <$CLUSTER>
932

>  <INDEX>
610791

$$$$
