Lithuania 1067744
 OpenBabel04062209303D

 47 50  0  0  1  0  0  0  0  0999 V2000
    0.4350    0.9370   -0.2510 N   0  0  0  0  0  0  0  0  0  0  0  0
    1.1720    1.3730    0.8710 C   0  0  0  0  0  0  0  0  0  0  0  0
    0.5700   -0.4550   -0.7430 C   0  0  1  0  0  0  0  0  0  0  0  0
    1.9180   -0.9650   -0.5710 N   0  0  0  0  0  0  0  0  0  0  0  0
    2.3330    0.5400    1.2730 C   0  0  0  0  0  0  0  0  0  0  0  0
    2.6950   -0.5590    0.4920 C   0  0  0  0  0  0  0  0  0  0  0  0
   -0.4120   -1.4480   -0.1340 C   0  0  0  0  0  0  0  0  0  0  0  0
   -0.5010    1.8210   -0.9210 C   0  0  0  0  0  0  0  0  0  0  0  0
   -0.8230   -2.5520   -0.9020 C   0  0  0  0  0  0  0  0  0  0  0  0
    0.9370    2.3730    1.5430 O   0  0  0  0  0  0  0  0  0  0  0  0
   -1.7060   -3.5000   -0.3830 C   0  0  0  0  0  0  0  0  0  0  0  0
   -2.1870   -3.3640    0.9170 C   0  0  0  0  0  0  0  0  0  0  0  0
   -0.8980   -1.3340    1.1780 C   0  0  0  0  0  0  0  0  0  0  0  0
   -1.7820   -2.2840    1.6960 C   0  0  0  0  0  0  0  0  0  0  0  0
   -1.5470    1.3220   -1.7180 C   0  0  0  0  0  0  0  0  0  0  0  0
   -0.3800    3.2190   -0.8290 C   0  0  0  0  0  0  0  0  0  0  0  0
   -2.3120    3.5550   -2.2460 C   0  0  0  0  0  0  0  0  0  0  0  0
    3.0990    0.9070    2.3880 C   0  0  0  0  0  0  0  0  0  0  0  0
   -2.1550   -4.6000   -1.0850 O   0  0  0  0  0  0  0  0  0  0  0  0
   -1.2770    4.0750   -1.4800 C   0  0  0  0  0  0  0  0  0  0  0  0
   -2.4450    2.1770   -2.3670 C   0  0  0  0  0  0  0  0  0  0  0  0
   -3.1250    4.4360   -2.8250 F   0  0  0  0  0  0  0  0  0  0  0  0
   -3.0490   -4.3470    1.3470 O   0  0  0  0  0  0  0  0  0  0  0  0
    3.8420   -1.2840    0.8450 C   0  0  0  0  0  0  0  0  0  0  0  0
   -1.6860   -4.7680   -2.4180 C   0  0  0  0  0  0  0  0  0  0  0  0
   -3.5580   -4.2410    2.6710 C   0  0  0  0  0  0  0  0  0  0  0  0
    4.2330    0.1720    2.7280 C   0  0  0  0  0  0  0  0  0  0  0  0
    4.6070   -0.9220    1.9550 C   0  0  0  0  0  0  0  0  0  0  0  0
    0.3290   -0.3750   -1.8030 H   0  0  0  0  0  0  0  0  0  0  0  0
    2.2910   -1.6250   -1.2380 H   0  0  0  0  0  0  0  0  0  0  0  0
   -0.4500   -2.6680   -1.9090 H   0  0  0  0  0  0  0  0  0  0  0  0
   -0.5850   -0.5030    1.7930 H   0  0  0  0  0  0  0  0  0  0  0  0
   -2.1530   -2.1800    2.7050 H   0  0  0  0  0  0  0  0  0  0  0  0
   -1.6600    0.2540   -1.8320 H   0  0  0  0  0  0  0  0  0  0  0  0
    0.4230    3.6420   -0.2430 H   0  0  0  0  0  0  0  0  0  0  0  0
    2.8100    1.7600    2.9840 H   0  0  0  0  0  0  0  0  0  0  0  0
   -1.1630    5.1450   -1.3860 H   0  0  0  0  0  0  0  0  0  0  0  0
   -3.2450    1.7640   -2.9640 H   0  0  0  0  0  0  0  0  0  0  0  0
    4.1380   -2.1350    0.2490 H   0  0  0  0  0  0  0  0  0  0  0  0
   -2.1210   -5.6720   -2.8450 H   0  0  0  0  0  0  0  0  0  0  0  0
   -0.5990   -4.8550   -2.4130 H   0  0  0  0  0  0  0  0  0  0  0  0
   -1.9790   -3.9060   -3.0170 H   0  0  0  0  0  0  0  0  0  0  0  0
   -4.2220   -5.0810    2.8730 H   0  0  0  0  0  0  0  0  0  0  0  0
   -4.1110   -3.3080    2.7740 H   0  0  0  0  0  0  0  0  0  0  0  0
   -2.7310   -4.2530    3.3800 H   0  0  0  0  0  0  0  0  0  0  0  0
    4.8200    0.4510    3.5900 H   0  0  0  0  0  0  0  0  0  0  0  0
    5.4880   -1.4910    2.2130 H   0  0  0  0  0  0  0  0  0  0  0  0
  1  2  1  0  0  0  0
  1  3  1  0  0  0  0
  1  8  1  0  0  0  0
  2  5  1  0  0  0  0
  2 10  2  0  0  0  0
  3  4  1  0  0  0  0
  3  7  1  0  0  0  0
  3 29  1  6  0  0  0
  4  6  1  0  0  0  0
  4 30  1  0  0  0  0
  5  6  2  0  0  0  0
  5 18  1  0  0  0  0
  6 24  1  0  0  0  0
  7  9  1  0  0  0  0
  7 13  2  0  0  0  0
  8 15  1  0  0  0  0
  8 16  2  0  0  0  0
  9 11  2  0  0  0  0
  9 31  1  0  0  0  0
 11 12  1  0  0  0  0
 11 19  1  0  0  0  0
 12 14  2  0  0  0  0
 12 23  1  0  0  0  0
 13 14  1  0  0  0  0
 13 32  1  0  0  0  0
 14 33  1  0  0  0  0
 15 21  2  0  0  0  0
 15 34  1  0  0  0  0
 16 20  1  0  0  0  0
 16 35  1  0  0  0  0
 17 20  2  0  0  0  0
 17 21  1  0  0  0  0
 17 22  1  0  0  0  0
 18 27  2  0  0  0  0
 18 36  1  0  0  0  0
 19 25  1  0  0  0  0
 20 37  1  0  0  0  0
 21 38  1  0  0  0  0
 23 26  1  0  0  0  0
 24 28  2  0  0  0  0
 24 39  1  0  0  0  0
 25 40  1  0  0  0  0
 25 41  1  0  0  0  0
 25 42  1  0  0  0  0
 26 43  1  0  0  0  0
 26 44  1  0  0  0  0
 26 45  1  0  0  0  0
 27 28  1  0  0  0  0
 27 46  1  0  0  0  0
 28 47  1  0  0  0  0
M  END
>  <$CLUSTER>
336

>  <INDEX>
222901

$$$$
