Maybridge HTS 06299
 OpenBabel04062209303D

 35 37  0  0  0  0  0  0  0  0999 V2000
   -1.8690    0.9210    0.3550 S   0  0  0  0  0  0  0  0  0  0  0  0
   -0.9390    0.3480   -0.9270 N   0  0  0  0  0  0  0  0  0  0  0  0
    1.5050    5.3840    2.6790 C   0  0  0  0  0  0  0  0  0  0  0  0
    1.3630    0.4890   -0.7780 N   0  0  0  0  0  0  0  0  0  0  0  0
    0.2730   -0.2860   -0.5900 C   0  0  0  0  0  0  0  0  0  0  0  0
   -0.8610    2.2530    1.0070 C   0  0  0  0  0  0  0  0  0  0  0  0
   -1.9950   -0.1170    1.3660 O   0  0  0  0  0  0  0  0  0  0  0  0
   -3.0730    1.5040   -0.2190 O   0  0  0  0  0  0  0  0  0  0  0  0
    0.6610    4.2990    2.0800 C   0  0  0  0  0  0  0  0  0  0  0  0
    2.5550   -0.0680   -0.4480 C   0  0  0  0  0  0  0  0  0  0  0  0
    0.0530    1.9590    2.0170 C   0  0  0  0  0  0  0  0  0  0  0  0
   -1.0400    3.5430    0.5360 C   0  0  0  0  0  0  0  0  0  0  0  0
   -0.2690    4.5730    1.0740 C   0  0  0  0  0  0  0  0  0  0  0  0
    0.8220    2.9950    2.5500 C   0  0  0  0  0  0  0  0  0  0  0  0
    2.8290    5.1180    2.5080 F   0  0  0  0  0  0  0  0  0  0  0  0
    1.2950    5.4740    4.0210 F   0  0  0  0  0  0  0  0  0  0  0  0
    1.2920    6.6300    2.1720 F   0  0  0  0  0  0  0  0  0  0  0  0
    2.6950   -1.3520    0.0640 C   0  0  0  0  0  0  0  0  0  0  0  0
    1.5460   -2.1170    0.2510 C   0  0  0  0  0  0  0  0  0  0  0  0
    0.3060   -1.5750   -0.0810 C   0  0  0  0  0  0  0  0  0  0  0  0
    3.7300    0.7040   -0.6320 C   0  0  0  0  0  0  0  0  0  0  0  0
    3.9670   -1.8710    0.3930 C   0  0  0  0  0  0  0  0  0  0  0  0
    4.9900    0.1940   -0.3100 C   0  0  0  0  0  0  0  0  0  0  0  0
    5.1090   -1.0940    0.2020 C   0  0  0  0  0  0  0  0  0  0  0  0
   -1.2350    0.4530   -1.8870 H   0  0  0  0  0  0  0  0  0  0  0  0
    0.1640    0.9480    2.3810 H   0  0  0  0  0  0  0  0  0  0  0  0
   -1.7660    3.7480   -0.2370 H   0  0  0  0  0  0  0  0  0  0  0  0
   -0.3910    5.5830    0.7130 H   0  0  0  0  0  0  0  0  0  0  0  0
    1.5430    2.7870    3.3270 H   0  0  0  0  0  0  0  0  0  0  0  0
    1.6150   -3.1190    0.6490 H   0  0  0  0  0  0  0  0  0  0  0  0
   -0.6030   -2.1430    0.0540 H   0  0  0  0  0  0  0  0  0  0  0  0
    3.6490    1.7050   -1.0290 H   0  0  0  0  0  0  0  0  0  0  0  0
    4.0550   -2.8700    0.7930 H   0  0  0  0  0  0  0  0  0  0  0  0
    5.8720    0.8000   -0.4590 H   0  0  0  0  0  0  0  0  0  0  0  0
    6.0820   -1.4910    0.4510 H   0  0  0  0  0  0  0  0  0  0  0  0
  1  2  1  0  0  0  0
  1  6  1  0  0  0  0
  1  7  2  0  0  0  0
  1  8  2  0  0  0  0
  2  5  1  0  0  0  0
  2 25  1  0  0  0  0
  3  9  1  0  0  0  0
  3 15  1  0  0  0  0
  3 16  1  0  0  0  0
  3 17  1  0  0  0  0
  4  5  1  0  0  0  0
  4 10  2  0  0  0  0
  5 20  2  0  0  0  0
  6 11  1  0  0  0  0
  6 12  2  0  0  0  0
  9 13  2  0  0  0  0
  9 14  1  0  0  0  0
 10 18  1  0  0  0  0
 10 21  1  0  0  0  0
 11 14  2  0  0  0  0
 11 26  1  0  0  0  0
 12 13  1  0  0  0  0
 12 27  1  0  0  0  0
 13 28  1  0  0  0  0
 14 29  1  0  0  0  0
 18 19  2  0  0  0  0
 18 22  1  0  0  0  0
 19 20  1  0  0  0  0
 19 30  1  0  0  0  0
 20 31  1  0  0  0  0
 21 23  2  0  0  0  0
 21 32  1  0  0  0  0
 22 24  2  0  0  0  0
 22 33  1  0  0  0  0
 23 24  1  0  0  0  0
 23 34  1  0  0  0  0
 24 35  1  0  0  0  0
M  END
>  <$CLUSTER>
861

>  <INDEX>
551739

$$$$
