InterBioScreen STOCK5S-05837
 OpenBabel04062209303D

 56 59  0  0  1  0  0  0  0  0999 V2000
    0.5410    0.9200   -0.0680 C   0  0  0  0  0  0  0  0  0  0  0  0
    1.4550   -1.3520   -0.0900 C   0  0  0  0  0  0  0  0  0  0  0  0
   -0.7970    0.4040    0.0930 C   0  0  0  0  0  0  0  0  0  0  0  0
    1.5760    0.0950   -0.1480 C   0  0  0  0  0  0  0  0  0  0  0  0
   -0.9410   -0.9900    0.1470 C   0  0  0  0  0  0  0  0  0  0  0  0
    0.1700   -1.8490    0.0520 O   0  0  0  0  0  0  0  0  0  0  0  0
   -3.3230   -0.7700    0.4020 C   0  0  0  0  0  0  0  0  0  0  0  0
   -2.1940   -1.5810    0.3000 C   0  0  0  0  0  0  0  0  0  0  0  0
   -1.9330    1.2070    0.1990 C   0  0  0  0  0  0  0  0  0  0  0  0
   -4.6360   -3.2880   -0.7840 C   0  0  0  0  0  0  0  0  0  0  0  0
   -4.6310   -1.2670    0.5590 O   0  0  0  0  0  0  0  0  0  0  0  0
   -3.1930    0.6200    0.3520 C   0  0  0  0  0  0  0  0  0  0  0  0
    0.7110   -5.5300   -4.8050 C   0  0  0  0  0  0  0  0  0  0  0  0
   -4.5530   -4.6510   -0.7950 N   0  0  0  0  0  0  0  0  0  0  0  0
   -4.7770   -2.6910    0.6130 C   0  0  1  0  0  0  0  0  0  0  0  0
    2.4320   -2.0920   -0.1630 O   0  0  0  0  0  0  0  0  0  0  0  0
   -0.7480   -5.3590   -4.3890 C   0  0  1  0  0  0  0  0  0  0  0  0
   -4.5750   -2.5870   -1.7980 O   0  0  0  0  0  0  0  0  0  0  0  0
    1.2950   -6.5880   -4.5290 O   0  0  0  0  0  0  0  0  0  0  0  0
   -1.3820   -6.7160   -4.0590 C   0  0  0  0  0  0  0  0  0  0  0  0
   -0.8650   -4.3980   -3.1980 C   0  0  0  0  0  0  0  0  0  0  0  0
   -4.5610    1.6730    0.4750 Cl  0  0  0  0  0  0  0  0  0  0  0  0
    0.9480    2.3400   -0.1530 C   0  0  0  0  0  0  0  0  0  0  0  0
   -4.4100   -5.4540   -1.9840 C   0  0  0  0  0  0  0  0  0  0  0  0
    1.2000   -4.4610   -5.3510 O   0  5  0  0  0  0  0  0  0  0  0  0
    2.8600    0.8150   -0.2970 C   0  0  0  0  0  0  0  0  0  0  0  0
   -2.8270   -6.5550   -3.5910 C   0  0  0  0  0  0  0  0  0  0  0  0
   -2.2940   -4.2580   -2.7450 C   0  0  0  0  0  0  0  0  0  0  0  0
   -2.9540   -5.5960   -2.3830 C   0  0  1  0  0  0  0  0  0  0  0  0
    2.3990    2.2350   -0.6250 C   0  0  0  0  0  0  0  0  0  0  0  0
   -6.1220   -3.0080    1.2100 C   0  0  0  0  0  0  0  0  0  0  0  0
   -2.2890   -2.6560    0.3390 H   0  0  0  0  0  0  0  0  0  0  0  0
   -1.8390    2.2820    0.1630 H   0  0  0  0  0  0  0  0  0  0  0  0
   -4.5950   -5.1310    0.0930 H   0  0  0  0  0  0  0  0  0  0  0  0
   -3.9960   -3.1290    1.2350 H   0  0  0  0  0  0  0  0  0  0  0  0
   -1.2920   -4.9260   -5.2280 H   0  0  0  0  0  0  0  0  0  0  0  0
   -1.3660   -7.3420   -4.9510 H   0  0  0  0  0  0  0  0  0  0  0  0
   -0.8040   -7.1950   -3.2690 H   0  0  0  0  0  0  0  0  0  0  0  0
   -0.2670   -4.7820   -2.3720 H   0  0  0  0  0  0  0  0  0  0  0  0
   -0.4890   -3.4190   -3.4940 H   0  0  0  0  0  0  0  0  0  0  0  0
    0.3370    2.8830   -0.8740 H   0  0  0  0  0  0  0  0  0  0  0  0
    0.8830    2.8280    0.8190 H   0  0  0  0  0  0  0  0  0  0  0  0
   -4.8240   -6.4440   -1.7950 H   0  0  0  0  0  0  0  0  0  0  0  0
   -4.9570   -4.9810   -2.8000 H   0  0  0  0  0  0  0  0  0  0  0  0
    3.4360    0.7900    0.6280 H   0  0  0  0  0  0  0  0  0  0  0  0
    3.4560    0.3960   -1.1080 H   0  0  0  0  0  0  0  0  0  0  0  0
   -3.2120   -7.5330   -3.3030 H   0  0  0  0  0  0  0  0  0  0  0  0
   -3.4200   -6.1590   -4.4160 H   0  0  0  0  0  0  0  0  0  0  0  0
   -2.8670   -3.7960   -3.5490 H   0  0  0  0  0  0  0  0  0  0  0  0
   -2.3160   -3.6130   -1.8660 H   0  0  0  0  0  0  0  0  0  0  0  0
   -2.4350   -5.9960   -1.5120 H   0  0  0  0  0  0  0  0  0  0  0  0
    3.0190    2.9630   -0.1010 H   0  0  0  0  0  0  0  0  0  0  0  0
    2.4590    2.4120   -1.6990 H   0  0  0  0  0  0  0  0  0  0  0  0
   -6.9060   -2.5720    0.5910 H   0  0  0  0  0  0  0  0  0  0  0  0
   -6.1800   -2.5930    2.2160 H   0  0  0  0  0  0  0  0  0  0  0  0
   -6.2540   -4.0890    1.2550 H   0  0  0  0  0  0  0  0  0  0  0  0
  1  3  1  0  0  0  0
  1  4  2  0  0  0  0
  1 23  1  0  0  0  0
  2  4  1  0  0  0  0
  2  6  1  0  0  0  0
  2 16  2  0  0  0  0
  3  5  1  0  0  0  0
  3  9  2  0  0  0  0
  4 26  1  0  0  0  0
  5  6  1  0  0  0  0
  5  8  2  0  0  0  0
  7  8  1  0  0  0  0
  7 11  1  0  0  0  0
  7 12  2  0  0  0  0
  8 32  1  0  0  0  0
  9 12  1  0  0  0  0
  9 33  1  0  0  0  0
 10 14  1  0  0  0  0
 10 15  1  0  0  0  0
 10 18  2  0  0  0  0
 11 15  1  0  0  0  0
 12 22  1  0  0  0  0
 13 17  1  0  0  0  0
 13 19  2  0  0  0  0
 13 25  1  0  0  0  0
 14 24  1  0  0  0  0
 14 34  1  0  0  0  0
 15 31  1  0  0  0  0
 15 35  1  1  0  0  0
 17 20  1  0  0  0  0
 17 21  1  0  0  0  0
 17 36  1  6  0  0  0
 20 27  1  0  0  0  0
 20 37  1  0  0  0  0
 20 38  1  0  0  0  0
 21 28  1  0  0  0  0
 21 39  1  0  0  0  0
 21 40  1  0  0  0  0
 23 30  1  0  0  0  0
 23 41  1  0  0  0  0
 23 42  1  0  0  0  0
 24 29  1  0  0  0  0
 24 43  1  0  0  0  0
 24 44  1  0  0  0  0
 26 30  1  0  0  0  0
 26 45  1  0  0  0  0
 26 46  1  0  0  0  0
 27 29  1  0  0  0  0
 27 47  1  0  0  0  0
 27 48  1  0  0  0  0
 28 29  1  0  0  0  0
 28 49  1  0  0  0  0
 28 50  1  0  0  0  0
 29 51  1  1  0  0  0
 30 52  1  0  0  0  0
 30 53  1  0  0  0  0
 31 54  1  0  0  0  0
 31 55  1  0  0  0  0
 31 56  1  0  0  0  0
M  CHG  1  25  -1
M  END
>  <$CLUSTER>
556

>  <INDEX>
365065

$$$$
