Life Chemicals F1608-0478
 OpenBabel04062209303D

 55 58  0  0  0  0  0  0  0  0999 V2000
   -0.8020   -0.1210   -0.7140 C   0  0  0  0  0  0  0  0  0  0  0  0
   -1.0380   -0.5420    0.6060 C   0  0  0  0  0  0  0  0  0  0  0  0
   -2.2900   -0.1900    1.1970 C   0  0  0  0  0  0  0  0  0  0  0  0
    0.4550   -0.3950   -1.4270 C   0  0  0  0  0  0  0  0  0  0  0  0
   -0.0990   -1.2940    1.3000 N   0  0  0  0  0  0  0  0  0  0  0  0
   -1.7620    0.5990   -1.4130 C   0  0  0  0  0  0  0  0  0  0  0  0
   -2.9150    0.9200   -0.8220 N   0  3  0  0  0  0  0  0  0  0  0  0
   -3.2210    0.5660    0.4390 C   0  0  0  0  0  0  0  0  0  0  0  0
    0.9220   -3.1380    3.2710 N   0  3  0  0  0  0  0  0  0  0  0  0
   -2.6960   -0.5700    2.4980 C   0  0  0  0  0  0  0  0  0  0  0  0
    0.4110   -1.1390   -2.4010 O   0  0  0  0  0  0  0  0  0  0  0  0
    0.2180   -2.6400    0.8590 C   0  0  0  0  0  0  0  0  0  0  0  0
    0.5900   -0.7340    2.4480 C   0  0  0  0  0  0  0  0  0  0  0  0
    1.7320    0.2170   -1.0000 C   0  0  0  0  0  0  0  0  0  0  0  0
   -4.4640    0.9400    0.9710 C   0  0  0  0  0  0  0  0  0  0  0  0
    0.5020   -1.7310    3.6590 C   0  0  0  0  0  0  0  0  0  0  0  0
    0.1300   -3.6320    2.0730 C   0  0  0  0  0  0  0  0  0  0  0  0
   -3.9370   -0.1960    3.0230 C   0  0  0  0  0  0  0  0  0  0  0  0
   -4.8180    0.5630    2.2620 C   0  0  0  0  0  0  0  0  0  0  0  0
   -4.1610   -0.6390    4.3110 O   0  0  0  0  0  0  0  0  0  0  0  0
    0.8550   -4.0880    4.4260 C   0  0  0  0  0  0  0  0  0  0  0  0
    1.7620    1.3800   -0.2260 C   0  0  0  0  0  0  0  0  0  0  0  0
    2.9300   -0.3810   -1.4050 C   0  0  0  0  0  0  0  0  0  0  0  0
   -5.4110   -0.2880    4.8930 C   0  0  0  0  0  0  0  0  0  0  0  0
    1.9280   -3.8070    5.4660 C   0  0  0  0  0  0  0  0  0  0  0  0
    2.9880    1.9320    0.1540 C   0  0  0  0  0  0  0  0  0  0  0  0
    4.1520    0.1750   -1.0220 C   0  0  0  0  0  0  0  0  0  0  0  0
    4.1810    1.3290   -0.2420 C   0  0  0  0  0  0  0  0  0  0  0  0
   -1.5760    0.8990   -2.4340 H   0  0  0  0  0  0  0  0  0  0  0  0
   -3.5910    1.4550   -1.3480 H   0  0  0  0  0  0  0  0  0  0  0  0
    1.8930   -3.0990    2.9970 H   0  0  0  0  0  0  0  0  0  0  0  0
   -2.0290   -1.1660    3.1030 H   0  0  0  0  0  0  0  0  0  0  0  0
    1.2280   -2.6580    0.4490 H   0  0  0  0  0  0  0  0  0  0  0  0
   -0.4920   -2.9450    0.0900 H   0  0  0  0  0  0  0  0  0  0  0  0
    0.1240    0.2120    2.7240 H   0  0  0  0  0  0  0  0  0  0  0  0
    1.6360   -0.5640    2.1950 H   0  0  0  0  0  0  0  0  0  0  0  0
   -5.1500    1.5240    0.3750 H   0  0  0  0  0  0  0  0  0  0  0  0
    1.1560   -1.3760    4.4550 H   0  0  0  0  0  0  0  0  0  0  0  0
   -0.5270   -1.7580    4.0190 H   0  0  0  0  0  0  0  0  0  0  0  0
   -0.9150   -3.7410    2.3630 H   0  0  0  0  0  0  0  0  0  0  0  0
    0.5250   -4.6000    1.7650 H   0  0  0  0  0  0  0  0  0  0  0  0
   -5.7730    0.8590    2.6710 H   0  0  0  0  0  0  0  0  0  0  0  0
    0.9860   -5.1040    4.0530 H   0  0  0  0  0  0  0  0  0  0  0  0
   -0.1230   -3.9980    4.8980 H   0  0  0  0  0  0  0  0  0  0  0  0
    0.8390    1.8510    0.0780 H   0  0  0  0  0  0  0  0  0  0  0  0
    2.9100   -1.2730   -2.0140 H   0  0  0  0  0  0  0  0  0  0  0  0
   -5.4680   -0.6930    5.9040 H   0  0  0  0  0  0  0  0  0  0  0  0
   -6.2210   -0.7000    4.2910 H   0  0  0  0  0  0  0  0  0  0  0  0
   -5.5020    0.7980    4.9310 H   0  0  0  0  0  0  0  0  0  0  0  0
    2.9120   -3.8940    5.0050 H   0  0  0  0  0  0  0  0  0  0  0  0
    1.8430   -4.5270    6.2800 H   0  0  0  0  0  0  0  0  0  0  0  0
    1.7990   -2.7980    5.8580 H   0  0  0  0  0  0  0  0  0  0  0  0
    3.0120    2.8280    0.7560 H   0  0  0  0  0  0  0  0  0  0  0  0
    5.0760   -0.2900   -1.3310 H   0  0  0  0  0  0  0  0  0  0  0  0
    5.1270    1.7560    0.0560 H   0  0  0  0  0  0  0  0  0  0  0  0
  1  2  2  0  0  0  0
  1  4  1  0  0  0  0
  1  6  1  0  0  0  0
  2  3  1  0  0  0  0
  2  5  1  0  0  0  0
  3  8  2  0  0  0  0
  3 10  1  0  0  0  0
  4 11  2  0  0  0  0
  4 14  1  0  0  0  0
  5 12  1  0  0  0  0
  5 13  1  0  0  0  0
  6  7  2  0  0  0  0
  6 29  1  0  0  0  0
  7  8  1  0  0  0  0
  7 30  1  0  0  0  0
  8 15  1  0  0  0  0
  9 16  1  0  0  0  0
  9 17  1  0  0  0  0
  9 21  1  0  0  0  0
  9 31  1  0  0  0  0
 10 18  2  0  0  0  0
 10 32  1  0  0  0  0
 12 17  1  0  0  0  0
 12 33  1  0  0  0  0
 12 34  1  0  0  0  0
 13 16  1  0  0  0  0
 13 35  1  0  0  0  0
 13 36  1  0  0  0  0
 14 22  2  0  0  0  0
 14 23  1  0  0  0  0
 15 19  2  0  0  0  0
 15 37  1  0  0  0  0
 16 38  1  0  0  0  0
 16 39  1  0  0  0  0
 17 40  1  0  0  0  0
 17 41  1  0  0  0  0
 18 19  1  0  0  0  0
 18 20  1  0  0  0  0
 19 42  1  0  0  0  0
 20 24  1  0  0  0  0
 21 25  1  0  0  0  0
 21 43  1  0  0  0  0
 21 44  1  0  0  0  0
 22 26  1  0  0  0  0
 22 45  1  0  0  0  0
 23 27  2  0  0  0  0
 23 46  1  0  0  0  0
 24 47  1  0  0  0  0
 24 48  1  0  0  0  0
 24 49  1  0  0  0  0
 25 50  1  0  0  0  0
 25 51  1  0  0  0  0
 25 52  1  0  0  0  0
 26 28  2  0  0  0  0
 26 53  1  0  0  0  0
 27 28  1  0  0  0  0
 27 54  1  0  0  0  0
 28 55  1  0  0  0  0
M  CHG  2   7   1   9   1
M  END
>  <$CLUSTER>
447

>  <INDEX>
295573

$$$$
