EMC Microcollections 009B3204
 OpenBabel04062209303D

 51 53  0  0  1  0  0  0  0  0999 V2000
   -6.2390   -4.0180   -1.2370 C   0  0  0  0  0  0  0  0  0  0  0  0
   -7.2590   -3.3120   -0.6720 N   0  0  0  0  0  0  0  0  0  0  0  0
   -8.2880   -4.1100   -0.8370 C   0  0  0  0  0  0  0  0  0  0  0  0
   -4.8160   -3.5220   -1.3030 C   0  0  0  0  0  0  0  0  0  0  0  0
   -8.0200   -5.2860   -1.4670 O   0  0  0  0  0  0  0  0  0  0  0  0
   -6.6850   -5.2160   -1.7230 C   0  0  0  0  0  0  0  0  0  0  0  0
   -0.1530    1.1050   -0.0840 C   0  0  0  0  0  0  0  0  0  0  0  0
   -4.6940   -2.2670   -0.7190 N   0  0  0  0  0  0  0  0  0  0  0  0
   -1.3000    0.1900   -0.2510 C   0  0  0  0  0  0  0  0  0  0  0  0
    1.2020    0.6040    0.2230 C   0  0  0  0  0  0  0  0  0  0  0  0
   -3.9380   -4.2010   -1.8250 O   0  0  0  0  0  0  0  0  0  0  0  0
   -0.3300    2.3120   -0.2030 O   0  0  0  0  0  0  0  0  0  0  0  0
   -9.7080   -3.8970   -0.4190 C   0  0  2  0  0  0  0  0  0  0  0  0
   -3.5110   -1.4770   -0.5870 C   0  0  0  0  0  0  0  0  0  0  0  0
    2.3030    1.2570   -0.3390 C   0  0  0  0  0  0  0  0  0  0  0  0
   -1.1520   -1.0410   -0.8950 C   0  0  0  0  0  0  0  0  0  0  0  0
    1.3930   -0.4710    1.0950 C   0  0  0  0  0  0  0  0  0  0  0  0
   -2.5570    0.5980    0.2070 C   0  0  0  0  0  0  0  0  0  0  0  0
    3.7860   -0.2680    0.8110 C   0  0  0  0  0  0  0  0  0  0  0  0
  -10.1360   -2.4780   -0.5980 N   0  3  0  0  0  0  0  0  0  0  0  0
   -3.6600   -0.2410    0.0420 C   0  0  0  0  0  0  0  0  0  0  0  0
   -2.2600   -1.8750   -1.0570 C   0  0  0  0  0  0  0  0  0  0  0  0
    5.0560   -0.6980    1.0890 N   0  0  0  0  0  0  0  0  0  0  0  0
    2.6870   -0.9080    1.3830 C   0  0  0  0  0  0  0  0  0  0  0  0
    3.5940    0.8150   -0.0470 C   0  0  0  0  0  0  0  0  0  0  0  0
   -9.9160   -4.2690    1.0440 C   0  0  0  0  0  0  0  0  0  0  0  0
  -11.3790   -4.2320    1.5510 C   0  0  0  0  0  0  0  0  0  0  0  0
  -11.5170   -4.7340    2.9800 C   0  0  0  0  0  0  0  0  0  0  0  0
   -6.0880   -5.9680   -2.2180 H   0  0  0  0  0  0  0  0  0  0  0  0
   -5.5420   -1.8660   -0.3440 H   0  0  0  0  0  0  0  0  0  0  0  0
  -10.3100   -4.5420   -1.0600 H   0  0  0  0  0  0  0  0  0  0  0  0
    2.1550    2.1010   -0.9970 H   0  0  0  0  0  0  0  0  0  0  0  0
   -0.1850   -1.3460   -1.2660 H   0  0  0  0  0  0  0  0  0  0  0  0
    0.5430   -0.9620    1.5440 H   0  0  0  0  0  0  0  0  0  0  0  0
   -2.6740    1.5590    0.6870 H   0  0  0  0  0  0  0  0  0  0  0  0
   -9.5790   -1.8810   -0.0040 H   0  0  0  0  0  0  0  0  0  0  0  0
  -11.1100   -2.3860   -0.3480 H   0  0  0  0  0  0  0  0  0  0  0  0
  -10.0090   -2.2070   -1.5630 H   0  0  0  0  0  0  0  0  0  0  0  0
   -4.6300    0.0670    0.4020 H   0  0  0  0  0  0  0  0  0  0  0  0
   -2.1480   -2.8310   -1.5470 H   0  0  0  0  0  0  0  0  0  0  0  0
    5.8490   -0.2310    0.6730 H   0  0  0  0  0  0  0  0  0  0  0  0
    5.1990   -1.4820    1.7100 H   0  0  0  0  0  0  0  0  0  0  0  0
    2.8370   -1.7440    2.0500 H   0  0  0  0  0  0  0  0  0  0  0  0
    4.4460    1.3120   -0.4860 H   0  0  0  0  0  0  0  0  0  0  0  0
   -9.5380   -5.2810    1.1880 H   0  0  0  0  0  0  0  0  0  0  0  0
   -9.3350   -3.5750    1.6510 H   0  0  0  0  0  0  0  0  0  0  0  0
  -11.7380   -3.2040    1.5060 H   0  0  0  0  0  0  0  0  0  0  0  0
  -11.9900   -4.8580    0.9010 H   0  0  0  0  0  0  0  0  0  0  0  0
  -10.9110   -4.1160    3.6420 H   0  0  0  0  0  0  0  0  0  0  0  0
  -11.1770   -5.7680    3.0360 H   0  0  0  0  0  0  0  0  0  0  0  0
  -12.5620   -4.6780    3.2860 H   0  0  0  0  0  0  0  0  0  0  0  0
  1  2  1  0  0  0  0
  1  4  1  0  0  0  0
  1  6  2  0  0  0  0
  2  3  2  0  0  0  0
  3  5  1  0  0  0  0
  3 13  1  0  0  0  0
  4  8  1  0  0  0  0
  4 11  2  0  0  0  0
  5  6  1  0  0  0  0
  6 29  1  0  0  0  0
  7  9  1  0  0  0  0
  7 10  1  0  0  0  0
  7 12  2  0  0  0  0
  8 14  1  0  0  0  0
  8 30  1  0  0  0  0
  9 16  1  0  0  0  0
  9 18  2  0  0  0  0
 10 15  1  0  0  0  0
 10 17  2  0  0  0  0
 13 20  1  0  0  0  0
 13 26  1  0  0  0  0
 13 31  1  6  0  0  0
 14 21  2  0  0  0  0
 14 22  1  0  0  0  0
 15 25  2  0  0  0  0
 15 32  1  0  0  0  0
 16 22  2  0  0  0  0
 16 33  1  0  0  0  0
 17 24  1  0  0  0  0
 17 34  1  0  0  0  0
 18 21  1  0  0  0  0
 18 35  1  0  0  0  0
 19 23  1  0  0  0  0
 19 24  2  0  0  0  0
 19 25  1  0  0  0  0
 20 36  1  0  0  0  0
 20 37  1  0  0  0  0
 20 38  1  0  0  0  0
 21 39  1  0  0  0  0
 22 40  1  0  0  0  0
 23 41  1  0  0  0  0
 23 42  1  0  0  0  0
 24 43  1  0  0  0  0
 25 44  1  0  0  0  0
 26 27  1  0  0  0  0
 26 45  1  0  0  0  0
 26 46  1  0  0  0  0
 27 28  1  0  0  0  0
 27 47  1  0  0  0  0
 27 48  1  0  0  0  0
 28 49  1  0  0  0  0
 28 50  1  0  0  0  0
 28 51  1  0  0  0  0
M  CHG  1  20   1
M  END
>  <$CLUSTER>
341

>  <INDEX>
218044

$$$$
