Chemdiv 1416-0529
 OpenBabel04062209303D

 51 53  0  0  0  0  0  0  0  0999 V2000
   -1.7820   -1.0450   -2.9850 C   0  0  0  0  0  0  0  0  0  0  0  0
   -3.0120   -1.3240   -2.4360 C   0  0  0  0  0  0  0  0  0  0  0  0
   -1.4440   -1.5030   -4.2670 C   0  0  0  0  0  0  0  0  0  0  0  0
   -0.7780   -0.1430   -2.2720 C   0  0  0  0  0  0  0  0  0  0  0  0
    2.1320    0.5830    4.3050 C   0  0  0  0  0  0  0  0  0  0  0  0
    2.8410    1.7290    3.9390 C   0  0  0  0  0  0  0  0  0  0  0  0
    1.2900   -0.0380    3.3790 C   0  0  0  0  0  0  0  0  0  0  0  0
    1.1640    0.4980    2.0920 C   0  0  0  0  0  0  0  0  0  0  0  0
   -2.3600   -2.2830   -4.9780 C   0  0  0  0  0  0  0  0  0  0  0  0
    0.1090    0.2820   -0.0900 N   0  0  0  0  0  0  0  0  0  0  0  0
   -3.9270   -2.1040   -3.1480 C   0  0  0  0  0  0  0  0  0  0  0  0
   -3.6010   -2.5820   -4.4160 C   0  0  0  0  0  0  0  0  0  0  0  0
    3.7140    2.3730    4.8980 N   0  0  0  0  0  0  0  0  0  0  0  0
   -0.7480   -0.4540   -0.8460 N   0  0  0  0  0  0  0  0  0  0  0  0
   -0.1320    0.6890   -2.8490 O   0  0  0  0  0  0  0  0  0  0  0  0
    1.8650    1.6340    1.7280 C   0  0  0  0  0  0  0  0  0  0  0  0
    2.7080    2.2550    2.6530 C   0  0  0  0  0  0  0  0  0  0  0  0
    0.2540   -0.1830    1.1150 C   0  0  0  0  0  0  0  0  0  0  0  0
   -0.2230   -1.2300   -4.8200 O   0  0  0  0  0  0  0  0  0  0  0  0
    0.5910   -1.1710    3.7430 O   0  0  0  0  0  0  0  0  0  0  0  0
    4.4050    3.6350    4.5980 C   0  0  0  0  0  0  0  0  0  0  0  0
    3.9630    1.8030    6.2300 C   0  0  0  0  0  0  0  0  0  0  0  0
   -5.1960   -2.4160   -2.5910 C   0  0  0  0  0  0  0  0  0  0  0  0
   -4.5400   -3.3650   -5.1340 C   0  0  0  0  0  0  0  0  0  0  0  0
    5.7320    3.3780    3.8990 C   0  0  0  0  0  0  0  0  0  0  0  0
    2.9050    2.2590    7.2250 C   0  0  0  0  0  0  0  0  0  0  0  0
   -5.7830   -3.6630   -4.5740 C   0  0  0  0  0  0  0  0  0  0  0  0
   -6.1100   -3.1890   -3.3060 C   0  0  0  0  0  0  0  0  0  0  0  0
   -3.2690   -0.9420   -1.4590 H   0  0  0  0  0  0  0  0  0  0  0  0
    2.2340    0.1780    5.3010 H   0  0  0  0  0  0  0  0  0  0  0  0
   -2.1070   -2.6530   -5.9610 H   0  0  0  0  0  0  0  0  0  0  0  0
   -1.3310   -1.1750   -0.4440 H   0  0  0  0  0  0  0  0  0  0  0  0
    1.7610    2.0390    0.7320 H   0  0  0  0  0  0  0  0  0  0  0  0
    3.2570    3.1420    2.3730 H   0  0  0  0  0  0  0  0  0  0  0  0
   -0.2860   -1.0690    1.4150 H   0  0  0  0  0  0  0  0  0  0  0  0
   -0.0780   -1.6090   -5.6900 H   0  0  0  0  0  0  0  0  0  0  0  0
    0.0320   -1.5410    3.0560 H   0  0  0  0  0  0  0  0  0  0  0  0
    4.5910    4.1700    5.5290 H   0  0  0  0  0  0  0  0  0  0  0  0
    3.7730    4.2420    3.9500 H   0  0  0  0  0  0  0  0  0  0  0  0
    4.9440    2.1270    6.5790 H   0  0  0  0  0  0  0  0  0  0  0  0
    3.9430    0.7150    6.1620 H   0  0  0  0  0  0  0  0  0  0  0  0
   -5.4540   -2.0520   -1.6080 H   0  0  0  0  0  0  0  0  0  0  0  0
   -4.2920   -3.7320   -6.1190 H   0  0  0  0  0  0  0  0  0  0  0  0
    6.3700    2.7710    4.5420 H   0  0  0  0  0  0  0  0  0  0  0  0
    6.2240    4.3280    3.6930 H   0  0  0  0  0  0  0  0  0  0  0  0
    5.5530    2.8510    2.9620 H   0  0  0  0  0  0  0  0  0  0  0  0
    2.9200    3.3460    7.2980 H   0  0  0  0  0  0  0  0  0  0  0  0
    3.1150    1.8260    8.2030 H   0  0  0  0  0  0  0  0  0  0  0  0
    1.9220    1.9310    6.8860 H   0  0  0  0  0  0  0  0  0  0  0  0
   -6.4930   -4.2620   -5.1250 H   0  0  0  0  0  0  0  0  0  0  0  0
   -7.0730   -3.4210   -2.8760 H   0  0  0  0  0  0  0  0  0  0  0  0
  1  2  1  0  0  0  0
  1  3  2  0  0  0  0
  1  4  1  0  0  0  0
  2 11  2  0  0  0  0
  2 29  1  0  0  0  0
  3  9  1  0  0  0  0
  3 19  1  0  0  0  0
  4 14  1  0  0  0  0
  4 15  2  0  0  0  0
  5  6  1  0  0  0  0
  5  7  2  0  0  0  0
  5 30  1  0  0  0  0
  6 13  1  0  0  0  0
  6 17  2  0  0  0  0
  7  8  1  0  0  0  0
  7 20  1  0  0  0  0
  8 16  2  0  0  0  0
  8 18  1  0  0  0  0
  9 12  2  0  0  0  0
  9 31  1  0  0  0  0
 10 14  1  0  0  0  0
 10 18  2  0  0  0  0
 11 12  1  0  0  0  0
 11 23  1  0  0  0  0
 12 24  1  0  0  0  0
 13 21  1  0  0  0  0
 13 22  1  0  0  0  0
 14 32  1  0  0  0  0
 16 17  1  0  0  0  0
 16 33  1  0  0  0  0
 17 34  1  0  0  0  0
 18 35  1  0  0  0  0
 19 36  1  0  0  0  0
 20 37  1  0  0  0  0
 21 25  1  0  0  0  0
 21 38  1  0  0  0  0
 21 39  1  0  0  0  0
 22 26  1  0  0  0  0
 22 40  1  0  0  0  0
 22 41  1  0  0  0  0
 23 28  2  0  0  0  0
 23 42  1  0  0  0  0
 24 27  2  0  0  0  0
 24 43  1  0  0  0  0
 25 44  1  0  0  0  0
 25 45  1  0  0  0  0
 25 46  1  0  0  0  0
 26 47  1  0  0  0  0
 26 48  1  0  0  0  0
 26 49  1  0  0  0  0
 27 28  1  0  0  0  0
 27 50  1  0  0  0  0
 28 51  1  0  0  0  0
M  END
>  <$CLUSTER>
631

>  <INDEX>
14047

$$$$
