Chemical Block A3577/0151844
 OpenBabel04062209303D

 48 50  0  0  1  0  0  0  0  0999 V2000
   -2.5670    0.8160    5.5470 S   0  0  0  0  0  0  0  0  0  0  0  0
    0.6030   -0.1660   -0.3880 N   0  0  0  0  0  0  0  0  0  0  0  0
    0.6620    0.0910   -2.8270 C   0  0  0  0  0  0  0  0  0  0  0  0
   -0.1390    1.2010   -2.6910 N   0  0  0  0  0  0  0  0  0  0  0  0
    0.3200   -1.0830    0.6300 C   0  0  0  0  0  0  0  0  0  0  0  0
    1.2020   -0.6640   -1.6450 C   0  0  1  0  0  0  0  0  0  0  0  0
    0.8140   -0.1260   -4.1840 C   0  0  0  0  0  0  0  0  0  0  0  0
   -0.4760    1.7020   -3.9160 C   0  0  0  0  0  0  0  0  0  0  0  0
    0.1020    0.8910   -4.8680 C   0  0  0  0  0  0  0  0  0  0  0  0
    0.3810    1.2880   -0.3020 C   0  0  0  0  0  0  0  0  0  0  0  0
   -0.5610    1.7360   -1.4100 C   0  0  0  0  0  0  0  0  0  0  0  0
   -1.7240    0.2450    4.1030 C   0  0  0  0  0  0  0  0  0  0  0  0
   -3.0970   -0.5980    6.2690 N   0  0  0  0  0  0  0  0  0  0  0  0
   -1.5930    1.4240    6.4390 O   0  0  0  0  0  0  0  0  0  0  0  0
   -3.7400    1.5660    5.1360 O   0  0  0  0  0  0  0  0  0  0  0  0
   -0.3860   -0.6000    1.8240 C   0  0  0  0  0  0  0  0  0  0  0  0
    0.6060   -2.2770    0.6120 O   0  0  0  0  0  0  0  0  0  0  0  0
   -0.3630   -0.0640    4.1690 C   0  0  0  0  0  0  0  0  0  0  0  0
   -2.4160    0.1200    2.8970 C   0  0  0  0  0  0  0  0  0  0  0  0
    0.3120   -0.4950    3.0280 C   0  0  0  0  0  0  0  0  0  0  0  0
   -1.7490   -0.3100    1.7510 C   0  0  0  0  0  0  0  0  0  0  0  0
    2.7290   -0.5850   -1.5790 C   0  0  0  0  0  0  0  0  0  0  0  0
   -1.2640    2.8300   -4.1180 C   0  0  0  0  0  0  0  0  0  0  0  0
   -4.1710   -1.3660    5.5840 C   0  0  0  0  0  0  0  0  0  0  0  0
   -2.0750   -1.5040    6.8580 C   0  0  0  0  0  0  0  0  0  0  0  0
    0.9280   -1.7110   -1.7700 H   0  0  0  0  0  0  0  0  0  0  0  0
    1.3750   -0.9270   -4.6410 H   0  0  0  0  0  0  0  0  0  0  0  0
    0.0260    1.0090   -5.9390 H   0  0  0  0  0  0  0  0  0  0  0  0
    1.3340    1.8060   -0.4070 H   0  0  0  0  0  0  0  0  0  0  0  0
   -0.0590    1.5300    0.6660 H   0  0  0  0  0  0  0  0  0  0  0  0
   -1.5680    1.3820   -1.1890 H   0  0  0  0  0  0  0  0  0  0  0  0
   -0.5620    2.8250   -1.4600 H   0  0  0  0  0  0  0  0  0  0  0  0
    0.1670    0.0310    5.1050 H   0  0  0  0  0  0  0  0  0  0  0  0
   -3.4690    0.3570    2.8520 H   0  0  0  0  0  0  0  0  0  0  0  0
    1.3620   -0.7440    3.0750 H   0  0  0  0  0  0  0  0  0  0  0  0
   -2.2810   -0.4170    0.8170 H   0  0  0  0  0  0  0  0  0  0  0  0
    3.0340    0.4540   -1.4530 H   0  0  0  0  0  0  0  0  0  0  0  0
    3.1530   -0.9790   -2.5020 H   0  0  0  0  0  0  0  0  0  0  0  0
    3.0870   -1.1730   -0.7340 H   0  0  0  0  0  0  0  0  0  0  0  0
   -1.5630    3.2420   -3.1540 H   0  0  0  0  0  0  0  0  0  0  0  0
   -2.1520    2.5550   -4.6870 H   0  0  0  0  0  0  0  0  0  0  0  0
   -0.6950    3.5770   -4.6720 H   0  0  0  0  0  0  0  0  0  0  0  0
   -4.9010   -0.6740    5.1650 H   0  0  0  0  0  0  0  0  0  0  0  0
   -4.6630   -2.0220    6.3020 H   0  0  0  0  0  0  0  0  0  0  0  0
   -3.7360   -1.9640    4.7830 H   0  0  0  0  0  0  0  0  0  0  0  0
   -1.3050   -0.9110    7.3510 H   0  0  0  0  0  0  0  0  0  0  0  0
   -1.6220   -2.1030    6.0680 H   0  0  0  0  0  0  0  0  0  0  0  0
   -2.5490   -2.1620    7.5870 H   0  0  0  0  0  0  0  0  0  0  0  0
  1 12  1  0  0  0  0
  1 13  1  0  0  0  0
  1 14  2  0  0  0  0
  1 15  2  0  0  0  0
  2  5  1  0  0  0  0
  2  6  1  0  0  0  0
  2 10  1  0  0  0  0
  3  4  1  0  0  0  0
  3  6  1  0  0  0  0
  3  7  2  0  0  0  0
  4  8  1  0  0  0  0
  4 11  1  0  0  0  0
  5 16  1  0  0  0  0
  5 17  2  0  0  0  0
  6 22  1  0  0  0  0
  6 26  1  6  0  0  0
  7  9  1  0  0  0  0
  7 27  1  0  0  0  0
  8  9  2  0  0  0  0
  8 23  1  0  0  0  0
  9 28  1  0  0  0  0
 10 11  1  0  0  0  0
 10 29  1  0  0  0  0
 10 30  1  0  0  0  0
 11 31  1  0  0  0  0
 11 32  1  0  0  0  0
 12 18  2  0  0  0  0
 12 19  1  0  0  0  0
 13 24  1  0  0  0  0
 13 25  1  0  0  0  0
 16 20  2  0  0  0  0
 16 21  1  0  0  0  0
 18 20  1  0  0  0  0
 18 33  1  0  0  0  0
 19 21  2  0  0  0  0
 19 34  1  0  0  0  0
 20 35  1  0  0  0  0
 21 36  1  0  0  0  0
 22 37  1  0  0  0  0
 22 38  1  0  0  0  0
 22 39  1  0  0  0  0
 23 40  1  0  0  0  0
 23 41  1  0  0  0  0
 23 42  1  0  0  0  0
 24 43  1  0  0  0  0
 24 44  1  0  0  0  0
 24 45  1  0  0  0  0
 25 46  1  0  0  0  0
 25 47  1  0  0  0  0
 25 48  1  0  0  0  0
M  END
>  <$CLUSTER>
182

>  <INDEX>
116660

$$$$
