Comgenex CGX-0740668
 OpenBabel04062209303D

 54 57  0  0  0  0  0  0  0  0999 V2000
   -1.0420    3.0060    1.3930 C   0  0  0  0  0  0  0  0  0  0  0  0
   -1.6140    1.7590    0.7660 C   0  0  0  0  0  0  0  0  0  0  0  0
   -0.2970    3.9330    0.6640 C   0  0  0  0  0  0  0  0  0  0  0  0
   -1.4300    3.4530    5.7910 C   0  0  0  0  0  0  0  0  0  0  0  0
   -0.7530    0.9410    0.1890 N   0  0  0  0  0  0  0  0  0  0  0  0
   -0.1620    3.9440   -0.7190 N   0  0  0  0  0  0  0  0  0  0  0  0
   -1.2240    3.0700    2.7770 C   0  0  0  0  0  0  0  0  0  0  0  0
   -0.7250    4.2500    4.8950 N   0  0  0  0  0  0  0  0  0  0  0  0
   -1.3010    3.9240    7.0890 N   0  0  0  0  0  0  0  0  0  0  0  0
    0.3170    4.9450    1.4340 C   0  0  0  0  0  0  0  0  0  0  0  0
   -2.8310    1.5620    0.8180 O   0  0  0  0  0  0  0  0  0  0  0  0
   -0.6210    4.0980    3.4920 C   0  0  0  0  0  0  0  0  0  0  0  0
   -2.0960    2.4530    5.5360 O   0  0  0  0  0  0  0  0  0  0  0  0
   -1.8300    3.4490    8.3110 C   0  0  0  0  0  0  0  0  0  0  0  0
   -2.6440    2.3140    8.3910 C   0  0  0  0  0  0  0  0  0  0  0  0
    0.1590    5.0300    2.8220 C   0  0  0  0  0  0  0  0  0  0  0  0
   -3.1400    1.8880    9.6270 C   0  0  0  0  0  0  0  0  0  0  0  0
   -3.9230    0.8150    9.7760 F   0  0  0  0  0  0  0  0  0  0  0  0
    0.6970    1.0310    0.0460 C   0  0  0  0  0  0  0  0  0  0  0  0
   -1.1110   -0.3120   -0.4700 C   0  0  0  0  0  0  0  0  0  0  0  0
    1.1010    4.3350   -1.3280 C   0  0  0  0  0  0  0  0  0  0  0  0
   -1.2720    3.6180   -1.6020 C   0  0  0  0  0  0  0  0  0  0  0  0
   -2.0200    3.7170   10.7230 C   0  0  0  0  0  0  0  0  0  0  0  0
   -1.5230    4.1450    9.4910 C   0  0  0  0  0  0  0  0  0  0  0  0
   -2.8300    2.5870   10.7910 C   0  0  0  0  0  0  0  0  0  0  0  0
   -0.0120   -1.2720   -0.0520 C   0  0  0  0  0  0  0  0  0  0  0  0
   -0.4130    2.8930   -2.7110 C   0  0  0  0  0  0  0  0  0  0  0  0
    1.0330    3.3310   -2.5440 C   0  0  0  0  0  0  0  0  0  0  0  0
    1.1780   -0.3880    0.2870 C   0  0  0  0  0  0  0  0  0  0  0  0
   -1.8250    2.3300    3.2840 H   0  0  0  0  0  0  0  0  0  0  0  0
   -0.2270    5.0320    5.2940 H   0  0  0  0  0  0  0  0  0  0  0  0
   -0.7290    4.7520    7.1770 H   0  0  0  0  0  0  0  0  0  0  0  0
    0.9310    5.6800    0.9340 H   0  0  0  0  0  0  0  0  0  0  0  0
   -2.8900    1.7650    7.4940 H   0  0  0  0  0  0  0  0  0  0  0  0
    0.6450    5.8220    3.3720 H   0  0  0  0  0  0  0  0  0  0  0  0
    1.1180    1.7130    0.7850 H   0  0  0  0  0  0  0  0  0  0  0  0
    0.9680    1.3670   -0.9550 H   0  0  0  0  0  0  0  0  0  0  0  0
   -1.1280   -0.1900   -1.5530 H   0  0  0  0  0  0  0  0  0  0  0  0
   -2.0840   -0.6650   -0.1290 H   0  0  0  0  0  0  0  0  0  0  0  0
    1.9550    4.1480   -0.6780 H   0  0  0  0  0  0  0  0  0  0  0  0
    1.1080    5.3780   -1.6460 H   0  0  0  0  0  0  0  0  0  0  0  0
   -1.7810    4.5050   -1.9800 H   0  0  0  0  0  0  0  0  0  0  0  0
   -1.9980    2.9540   -1.1340 H   0  0  0  0  0  0  0  0  0  0  0  0
   -1.7760    4.2620   11.6230 H   0  0  0  0  0  0  0  0  0  0  0  0
   -0.8950    5.0220    9.4450 H   0  0  0  0  0  0  0  0  0  0  0  0
   -3.2170    2.2540   11.7430 H   0  0  0  0  0  0  0  0  0  0  0  0
    0.2350   -1.9500   -0.8690 H   0  0  0  0  0  0  0  0  0  0  0  0
   -0.3200   -1.8500    0.8190 H   0  0  0  0  0  0  0  0  0  0  0  0
   -0.7730    3.1740   -3.7010 H   0  0  0  0  0  0  0  0  0  0  0  0
   -0.4890    1.8120   -2.5900 H   0  0  0  0  0  0  0  0  0  0  0  0
    1.6610    2.4630   -2.3430 H   0  0  0  0  0  0  0  0  0  0  0  0
    1.3770    3.8260   -3.4520 H   0  0  0  0  0  0  0  0  0  0  0  0
    1.4700   -0.5220    1.3290 H   0  0  0  0  0  0  0  0  0  0  0  0
    2.0240   -0.6200   -0.3600 H   0  0  0  0  0  0  0  0  0  0  0  0
  1  2  1  0  0  0  0
  1  3  2  0  0  0  0
  1  7  1  0  0  0  0
  2  5  1  0  0  0  0
  2 11  2  0  0  0  0
  3  6  1  0  0  0  0
  3 10  1  0  0  0  0
  4  8  1  0  0  0  0
  4  9  1  0  0  0  0
  4 13  2  0  0  0  0
  5 19  1  0  0  0  0
  5 20  1  0  0  0  0
  6 21  1  0  0  0  0
  6 22  1  0  0  0  0
  7 12  2  0  0  0  0
  7 30  1  0  0  0  0
  8 12  1  0  0  0  0
  8 31  1  0  0  0  0
  9 14  1  0  0  0  0
  9 32  1  0  0  0  0
 10 16  2  0  0  0  0
 10 33  1  0  0  0  0
 12 16  1  0  0  0  0
 14 15  2  0  0  0  0
 14 24  1  0  0  0  0
 15 17  1  0  0  0  0
 15 34  1  0  0  0  0
 16 35  1  0  0  0  0
 17 18  1  0  0  0  0
 17 25  2  0  0  0  0
 19 29  1  0  0  0  0
 19 36  1  0  0  0  0
 19 37  1  0  0  0  0
 20 26  1  0  0  0  0
 20 38  1  0  0  0  0
 20 39  1  0  0  0  0
 21 28  1  0  0  0  0
 21 40  1  0  0  0  0
 21 41  1  0  0  0  0
 22 27  1  0  0  0  0
 22 42  1  0  0  0  0
 22 43  1  0  0  0  0
 23 24  2  0  0  0  0
 23 25  1  0  0  0  0
 23 44  1  0  0  0  0
 24 45  1  0  0  0  0
 25 46  1  0  0  0  0
 26 29  1  0  0  0  0
 26 47  1  0  0  0  0
 26 48  1  0  0  0  0
 27 28  1  0  0  0  0
 27 49  1  0  0  0  0
 27 50  1  0  0  0  0
 28 51  1  0  0  0  0
 28 52  1  0  0  0  0
 29 53  1  0  0  0  0
 29 54  1  0  0  0  0
M  END
>  <$CLUSTER>
386

>  <INDEX>
240716

$$$$
