Asinex ASN 06745065
 OpenBabel04062209303D

 42 44  0  0  0  0  0  0  0  0999 V2000
    0.2370   -0.0550    0.7180 C   0  0  0  0  0  0  0  0  0  0  0  0
   -0.5150    0.4580   -0.2960 N   0  0  0  0  0  0  0  0  0  0  0  0
    1.3690   -0.5340    0.0830 C   0  0  0  0  0  0  0  0  0  0  0  0
    0.1020    0.3120   -1.4850 N   0  0  0  0  0  0  0  0  0  0  0  0
    1.2640   -0.2970   -1.2630 N   0  0  0  0  0  0  0  0  0  0  0  0
   -0.0390   -0.0990    2.0290 N   0  0  0  0  0  0  0  0  0  0  0  0
    2.3660   -1.1390    0.8660 C   0  0  0  0  0  0  0  0  0  0  0  0
    2.1240   -1.2030    2.2120 N   0  0  0  0  0  0  0  0  0  0  0  0
    0.9670   -0.6930    2.7000 C   0  0  0  0  0  0  0  0  0  0  0  0
   -1.8100    1.0940   -0.2150 C   0  0  0  0  0  0  0  0  0  0  0  0
    3.5220   -1.6370    0.2930 N   0  0  0  0  0  0  0  0  0  0  0  0
   -2.9470    0.1080   -0.4150 C   0  0  0  0  0  0  0  0  0  0  0  0
    0.7660   -0.7990    4.2220 C   0  0  0  0  0  0  0  0  0  0  0  0
    4.5450   -2.2600    1.1050 C   0  0  0  0  0  0  0  0  0  0  0  0
   -3.6320   -0.4260    0.6860 C   0  0  0  0  0  0  0  0  0  0  0  0
   -3.3110   -0.3020   -1.7070 C   0  0  0  0  0  0  0  0  0  0  0  0
    5.6990   -2.7160    0.2270 C   0  0  0  0  0  0  0  0  0  0  0  0
    6.7960   -3.3910    1.0540 C   0  0  0  0  0  0  0  0  0  0  0  0
    7.9520   -3.8480    0.1770 C   0  0  0  0  0  0  0  0  0  0  0  0
   -4.6770   -1.3360    0.4970 C   0  0  0  0  0  0  0  0  0  0  0  0
   -4.3560   -1.2110   -1.8950 C   0  0  0  0  0  0  0  0  0  0  0  0
   -5.0400   -1.7250   -0.7930 C   0  0  0  0  0  0  0  0  0  0  0  0
   -1.8720    1.8630   -0.9850 H   0  0  0  0  0  0  0  0  0  0  0  0
   -1.9140    1.5550    0.7670 H   0  0  0  0  0  0  0  0  0  0  0  0
    3.6540   -1.5650   -0.7060 H   0  0  0  0  0  0  0  0  0  0  0  0
   -0.1930   -0.3580    4.4930 H   0  0  0  0  0  0  0  0  0  0  0  0
    1.5680   -0.2660    4.7320 H   0  0  0  0  0  0  0  0  0  0  0  0
    0.7810   -1.8480    4.5180 H   0  0  0  0  0  0  0  0  0  0  0  0
    4.1210   -3.1220    1.6210 H   0  0  0  0  0  0  0  0  0  0  0  0
    4.9110   -1.5410    1.8380 H   0  0  0  0  0  0  0  0  0  0  0  0
   -3.3510   -0.1330    1.6870 H   0  0  0  0  0  0  0  0  0  0  0  0
   -2.7800    0.0880   -2.5630 H   0  0  0  0  0  0  0  0  0  0  0  0
    6.1210   -1.8500   -0.2820 H   0  0  0  0  0  0  0  0  0  0  0  0
    5.3240   -3.4250   -0.5110 H   0  0  0  0  0  0  0  0  0  0  0  0
    6.3740   -4.2570    1.5630 H   0  0  0  0  0  0  0  0  0  0  0  0
    7.1700   -2.6820    1.7920 H   0  0  0  0  0  0  0  0  0  0  0  0
    7.5870   -4.5580   -0.5650 H   0  0  0  0  0  0  0  0  0  0  0  0
    8.7100   -4.3270    0.7960 H   0  0  0  0  0  0  0  0  0  0  0  0
    8.3870   -2.9860   -0.3280 H   0  0  0  0  0  0  0  0  0  0  0  0
   -5.2030   -1.7380    1.3500 H   0  0  0  0  0  0  0  0  0  0  0  0
   -4.6340   -1.5150   -2.8930 H   0  0  0  0  0  0  0  0  0  0  0  0
   -5.8500   -2.4240   -0.9380 H   0  0  0  0  0  0  0  0  0  0  0  0
  1  2  1  0  0  0  0
  1  3  2  0  0  0  0
  1  6  1  0  0  0  0
  2  4  1  0  0  0  0
  2 10  1  0  0  0  0
  3  5  1  0  0  0  0
  3  7  1  0  0  0  0
  4  5  2  0  0  0  0
  6  9  2  0  0  0  0
  7  8  2  0  0  0  0
  7 11  1  0  0  0  0
  8  9  1  0  0  0  0
  9 13  1  0  0  0  0
 10 12  1  0  0  0  0
 10 23  1  0  0  0  0
 10 24  1  0  0  0  0
 11 14  1  0  0  0  0
 11 25  1  0  0  0  0
 12 15  2  0  0  0  0
 12 16  1  0  0  0  0
 13 26  1  0  0  0  0
 13 27  1  0  0  0  0
 13 28  1  0  0  0  0
 14 17  1  0  0  0  0
 14 29  1  0  0  0  0
 14 30  1  0  0  0  0
 15 20  1  0  0  0  0
 15 31  1  0  0  0  0
 16 21  2  0  0  0  0
 16 32  1  0  0  0  0
 17 18  1  0  0  0  0
 17 33  1  0  0  0  0
 17 34  1  0  0  0  0
 18 19  1  0  0  0  0
 18 35  1  0  0  0  0
 18 36  1  0  0  0  0
 19 37  1  0  0  0  0
 19 38  1  0  0  0  0
 19 39  1  0  0  0  0
 20 22  2  0  0  0  0
 20 40  1  0  0  0  0
 21 22  1  0  0  0  0
 21 41  1  0  0  0  0
 22 42  1  0  0  0  0
M  END
>  <$CLUSTER>
270

>  <INDEX>
163325

$$$$
