Life Chemicals F0497-0082
 OpenBabel04062209303D

 53 56  0  0  1  0  0  0  0  0999 V2000
   -0.5490   -0.0700   -1.2750 C   0  0  0  0  0  0  0  0  0  0  0  0
   -2.2600    0.1830    0.9500 C   0  0  0  0  0  0  0  0  0  0  0  0
   -1.0530    0.8300    0.9640 N   0  0  0  0  0  0  0  0  0  0  0  0
   -0.0410    0.7560   -0.0950 C   0  0  1  0  0  0  0  0  0  0  0  0
   -1.7620   -0.6710   -1.2540 C   0  0  0  0  0  0  0  0  0  0  0  0
    0.3410   -0.1320   -2.4550 C   0  0  0  0  0  0  0  0  0  0  0  0
   -2.5830   -0.5560   -0.1340 N   0  0  0  0  0  0  0  0  0  0  0  0
   -2.9020    0.4470    2.0650 N   0  0  0  0  0  0  0  0  0  0  0  0
    1.2680    0.2270    0.4690 C   0  0  0  0  0  0  0  0  0  0  0  0
   -0.8990    1.5660    2.0780 N   0  0  0  0  0  0  0  0  0  0  0  0
   -2.0410    1.2890    2.7150 C   0  0  0  0  0  0  0  0  0  0  0  0
    0.7990   -1.3980   -2.7410 N   0  0  0  0  0  0  0  0  0  0  0  0
    2.4240    1.0200    0.4090 C   0  0  0  0  0  0  0  0  0  0  0  0
    3.6370    0.5470    0.9120 C   0  0  0  0  0  0  0  0  0  0  0  0
    0.6640    0.8800   -3.0650 O   0  0  0  0  0  0  0  0  0  0  0  0
    1.3580   -1.0540    1.0410 C   0  0  0  0  0  0  0  0  0  0  0  0
    3.7110   -0.7240    1.4780 C   0  0  0  0  0  0  0  0  0  0  0  0
    2.5730   -1.5240    1.5430 C   0  0  0  0  0  0  0  0  0  0  0  0
    1.6510   -1.8510   -3.7620 C   0  0  0  0  0  0  0  0  0  0  0  0
   -2.3560   -1.4500   -2.3970 C   0  0  0  0  0  0  0  0  0  0  0  0
    4.8130    1.2710    0.8890 O   0  0  0  0  0  0  0  0  0  0  0  0
    3.3480   -2.8860   -5.7490 C   0  0  0  0  0  0  0  0  0  0  0  0
    2.2330   -1.0030   -4.7090 C   0  0  0  0  0  0  0  0  0  0  0  0
    1.9310   -3.2250   -3.8240 C   0  0  0  0  0  0  0  0  0  0  0  0
    4.9510   -1.1050    1.9460 O   0  0  0  0  0  0  0  0  0  0  0  0
    2.7740   -3.7390   -4.8110 C   0  0  0  0  0  0  0  0  0  0  0  0
    3.0770   -1.5210   -5.6980 C   0  0  0  0  0  0  0  0  0  0  0  0
    4.2490   -3.4340   -6.8060 C   0  0  0  0  0  0  0  0  0  0  0  0
    4.7740    2.5740    0.3170 C   0  0  0  0  0  0  0  0  0  0  0  0
    5.0630   -2.3960    2.5300 C   0  0  0  0  0  0  0  0  0  0  0  0
    0.1520    1.7580   -0.4780 H   0  0  0  0  0  0  0  0  0  0  0  0
   -3.4640   -1.0500   -0.1320 H   0  0  0  0  0  0  0  0  0  0  0  0
   -2.2710    1.7050    3.6850 H   0  0  0  0  0  0  0  0  0  0  0  0
    0.4690   -2.1190   -2.1150 H   0  0  0  0  0  0  0  0  0  0  0  0
    2.3750    2.0050   -0.0300 H   0  0  0  0  0  0  0  0  0  0  0  0
    0.4790   -1.6800    1.0930 H   0  0  0  0  0  0  0  0  0  0  0  0
    2.6300   -2.5090    1.9820 H   0  0  0  0  0  0  0  0  0  0  0  0
   -3.3390   -1.8240   -2.1100 H   0  0  0  0  0  0  0  0  0  0  0  0
   -1.7050   -2.2900   -2.6410 H   0  0  0  0  0  0  0  0  0  0  0  0
   -2.4540   -0.8010   -3.2670 H   0  0  0  0  0  0  0  0  0  0  0  0
    2.0300    0.0570   -4.6770 H   0  0  0  0  0  0  0  0  0  0  0  0
    1.4890   -3.8930   -3.0990 H   0  0  0  0  0  0  0  0  0  0  0  0
    2.9810   -4.7980   -4.8470 H   0  0  0  0  0  0  0  0  0  0  0  0
    3.5210   -0.8580   -6.4260 H   0  0  0  0  0  0  0  0  0  0  0  0
    4.3390   -4.5130   -6.6830 H   0  0  0  0  0  0  0  0  0  0  0  0
    5.2340   -2.9750   -6.7180 H   0  0  0  0  0  0  0  0  0  0  0  0
    3.8320   -3.2130   -7.7890 H   0  0  0  0  0  0  0  0  0  0  0  0
    5.7660    3.0230    0.3680 H   0  0  0  0  0  0  0  0  0  0  0  0
    4.0670    3.1920    0.8700 H   0  0  0  0  0  0  0  0  0  0  0  0
    4.4590    2.5040   -0.7240 H   0  0  0  0  0  0  0  0  0  0  0  0
    6.0910   -2.5610    2.8530 H   0  0  0  0  0  0  0  0  0  0  0  0
    4.7870   -3.1520    1.7950 H   0  0  0  0  0  0  0  0  0  0  0  0
    4.3970   -2.4650    3.3900 H   0  0  0  0  0  0  0  0  0  0  0  0
  1  4  1  0  0  0  0
  1  5  2  0  0  0  0
  1  6  1  0  0  0  0
  2  3  1  0  0  0  0
  2  7  1  0  0  0  0
  2  8  2  0  0  0  0
  3  4  1  0  0  0  0
  3 10  1  0  0  0  0
  4  9  1  0  0  0  0
  4 31  1  6  0  0  0
  5  7  1  0  0  0  0
  5 20  1  0  0  0  0
  6 12  1  0  0  0  0
  6 15  2  0  0  0  0
  7 32  1  0  0  0  0
  8 11  1  0  0  0  0
  9 13  2  0  0  0  0
  9 16  1  0  0  0  0
 10 11  2  0  0  0  0
 11 33  1  0  0  0  0
 12 19  1  0  0  0  0
 12 34  1  0  0  0  0
 13 14  1  0  0  0  0
 13 35  1  0  0  0  0
 14 17  2  0  0  0  0
 14 21  1  0  0  0  0
 16 18  2  0  0  0  0
 16 36  1  0  0  0  0
 17 18  1  0  0  0  0
 17 25  1  0  0  0  0
 18 37  1  0  0  0  0
 19 23  1  0  0  0  0
 19 24  2  0  0  0  0
 20 38  1  0  0  0  0
 20 39  1  0  0  0  0
 20 40  1  0  0  0  0
 21 29  1  0  0  0  0
 22 26  2  0  0  0  0
 22 27  1  0  0  0  0
 22 28  1  0  0  0  0
 23 27  2  0  0  0  0
 23 41  1  0  0  0  0
 24 26  1  0  0  0  0
 24 42  1  0  0  0  0
 25 30  1  0  0  0  0
 26 43  1  0  0  0  0
 27 44  1  0  0  0  0
 28 45  1  0  0  0  0
 28 46  1  0  0  0  0
 28 47  1  0  0  0  0
 29 48  1  0  0  0  0
 29 49  1  0  0  0  0
 29 50  1  0  0  0  0
 30 51  1  0  0  0  0
 30 52  1  0  0  0  0
 30 53  1  0  0  0  0
M  END
>  <$CLUSTER>
737

>  <INDEX>
271154

$$$$
