InnovaPharm STT-00192300
 OpenBabel04062209303D

 49 51  0  0  1  0  0  0  0  0999 V2000
    1.3320    0.1700    0.5180 C   0  0  0  0  0  0  0  0  0  0  0  0
    1.8770   -0.8750    1.3020 C   0  0  0  0  0  0  0  0  0  0  0  0
    2.2140    1.1060   -0.0530 C   0  0  0  0  0  0  0  0  0  0  0  0
   -0.1260    0.2720    0.2990 C   0  0  0  0  0  0  0  0  0  0  0  0
    3.5750    0.9560    0.1690 C   0  0  0  0  0  0  0  0  0  0  0  0
    4.1180   -0.0380    0.9010 N   0  0  0  0  0  0  0  0  0  0  0  0
   -0.7880   -0.4920   -0.6780 C   0  0  0  0  0  0  0  0  0  0  0  0
    3.2700   -0.9420    1.4460 C   0  0  0  0  0  0  0  0  0  0  0  0
   -2.1830   -0.4160   -0.8180 C   0  0  0  0  0  0  0  0  0  0  0  0
    1.7600    2.2000   -0.8590 C   0  0  0  0  0  0  0  0  0  0  0  0
    1.3920    3.0850   -1.5130 N   0  0  0  0  0  0  0  0  0  0  0  0
    0.9990   -1.9350    1.9240 C   0  0  0  0  0  0  0  0  0  0  0  0
   -0.8910    1.1560    1.0780 C   0  0  0  0  0  0  0  0  0  0  0  0
    1.6940   -2.8070    2.9500 N   0  3  2  0  0  0  0  0  0  0  0  0
    3.9160   -2.0120    2.2850 C   0  0  0  0  0  0  0  0  0  0  0  0
   -2.9320    0.4880   -0.0520 C   0  0  0  0  0  0  0  0  0  0  0  0
   -2.2740    1.2710    0.8990 C   0  0  0  0  0  0  0  0  0  0  0  0
    4.4660    1.8790   -0.3910 N   0  0  0  0  0  0  0  0  0  0  0  0
    3.0460   -3.2480    2.4570 C   0  0  0  0  0  0  0  0  0  0  0  0
   -0.0490   -1.3680   -1.4370 O   0  0  0  0  0  0  0  0  0  0  0  0
   -2.8260   -1.1960   -1.7480 O   0  0  0  0  0  0  0  0  0  0  0  0
   -4.2790    0.5180   -0.3030 O   0  0  0  0  0  0  0  0  0  0  0  0
    0.8360   -3.9620    3.3810 C   0  0  0  0  0  0  0  0  0  0  0  0
   -3.1460   -2.4700   -1.1870 C   0  0  0  0  0  0  0  0  0  0  0  0
    0.0820   -0.9040   -2.7810 C   0  0  0  0  0  0  0  0  0  0  0  0
   -5.0590    1.4440    0.4440 C   0  0  0  0  0  0  0  0  0  0  0  0
    0.6270   -2.5790    1.1270 H   0  0  0  0  0  0  0  0  0  0  0  0
    0.1600   -1.4380    2.4120 H   0  0  0  0  0  0  0  0  0  0  0  0
   -0.4020    1.7580    1.8290 H   0  0  0  0  0  0  0  0  0  0  0  0
    1.8460   -2.2470    3.7770 H   0  0  0  0  0  0  0  0  0  0  0  0
    4.1280   -1.5980    3.2710 H   0  0  0  0  0  0  0  0  0  0  0  0
    4.8500   -2.3100    1.8080 H   0  0  0  0  0  0  0  0  0  0  0  0
   -2.8360    1.9700    1.5000 H   0  0  0  0  0  0  0  0  0  0  0  0
    5.4590    1.7790   -0.2370 H   0  0  0  0  0  0  0  0  0  0  0  0
    4.1160    2.6450   -0.9490 H   0  0  0  0  0  0  0  0  0  0  0  0
    2.9410   -3.7610    1.5010 H   0  0  0  0  0  0  0  0  0  0  0  0
    3.5020   -3.9220    3.1830 H   0  0  0  0  0  0  0  0  0  0  0  0
    0.6370   -4.6070    2.5250 H   0  0  0  0  0  0  0  0  0  0  0  0
   -0.1060   -3.5860    3.7790 H   0  0  0  0  0  0  0  0  0  0  0  0
    1.3540   -4.5320    4.1520 H   0  0  0  0  0  0  0  0  0  0  0  0
   -3.6550   -3.0780   -1.9340 H   0  0  0  0  0  0  0  0  0  0  0  0
   -3.7980   -2.3340   -0.3240 H   0  0  0  0  0  0  0  0  0  0  0  0
   -2.2290   -2.9700   -0.8750 H   0  0  0  0  0  0  0  0  0  0  0  0
    0.6710   -1.6180   -3.3560 H   0  0  0  0  0  0  0  0  0  0  0  0
    0.5810    0.0650   -2.7840 H   0  0  0  0  0  0  0  0  0  0  0  0
   -0.9070   -0.8050   -3.2290 H   0  0  0  0  0  0  0  0  0  0  0  0
   -6.1040    1.3620    0.1460 H   0  0  0  0  0  0  0  0  0  0  0  0
   -4.7040    2.4570    0.2510 H   0  0  0  0  0  0  0  0  0  0  0  0
   -4.9660    1.2230    1.5070 H   0  0  0  0  0  0  0  0  0  0  0  0
  1  2  1  0  0  0  0
  1  3  2  0  0  0  0
  1  4  1  0  0  0  0
  2  8  2  0  0  0  0
  2 12  1  0  0  0  0
  3  5  1  0  0  0  0
  3 10  1  0  0  0  0
  4  7  2  0  0  0  0
  4 13  1  0  0  0  0
  5  6  2  0  0  0  0
  5 18  1  0  0  0  0
  6  8  1  0  0  0  0
  7  9  1  0  0  0  0
  7 20  1  0  0  0  0
  8 15  1  0  0  0  0
  9 16  2  0  0  0  0
  9 21  1  0  0  0  0
 10 11  3  0  0  0  0
 12 14  1  0  0  0  0
 12 27  1  0  0  0  0
 12 28  1  0  0  0  0
 13 17  2  0  0  0  0
 13 29  1  0  0  0  0
 14 19  1  0  0  0  0
 14 23  1  0  0  0  0
 14 30  1  1  0  0  0
 15 19  1  0  0  0  0
 15 31  1  0  0  0  0
 15 32  1  0  0  0  0
 16 17  1  0  0  0  0
 16 22  1  0  0  0  0
 17 33  1  0  0  0  0
 18 34  1  0  0  0  0
 18 35  1  0  0  0  0
 19 36  1  0  0  0  0
 19 37  1  0  0  0  0
 20 25  1  0  0  0  0
 21 24  1  0  0  0  0
 22 26  1  0  0  0  0
 23 38  1  0  0  0  0
 23 39  1  0  0  0  0
 23 40  1  0  0  0  0
 24 41  1  0  0  0  0
 24 42  1  0  0  0  0
 24 43  1  0  0  0  0
 25 44  1  0  0  0  0
 25 45  1  0  0  0  0
 25 46  1  0  0  0  0
 26 47  1  0  0  0  0
 26 48  1  0  0  0  0
 26 49  1  0  0  0  0
M  CHG  1  14   1
M  END
>  <$CLUSTER>
607

>  <INDEX>
401219

$$$$
