Tripos 1534-05651
 OpenBabel04062209303D

 49 52  0  0  1  0  0  0  0  0999 V2000
   -1.1570    0.4180   -0.5200 N   0  0  0  0  0  0  0  0  0  0  0  0
   -1.2730    0.0030   -1.8340 C   0  0  0  0  0  0  0  0  0  0  0  0
   -0.8920    6.5430   -1.7120 C   0  0  0  0  0  0  0  0  0  0  0  0
   -2.0470    5.7540   -1.1480 C   0  0  0  0  0  0  0  0  0  0  0  0
   -1.1750    7.9310   -2.6340 S   0  0  0  0  0  0  0  0  0  0  0  0
   -1.7310    4.6500   -0.4170 N   0  0  0  0  0  0  0  0  0  0  0  0
   -0.8720   -0.6980    0.3510 C   0  0  1  0  0  0  0  0  0  0  0  0
   -1.1600   -1.3640   -1.8870 O   0  0  0  0  0  0  0  0  0  0  0  0
    0.4950    8.2010   -2.8650 C   0  0  0  0  0  0  0  0  0  0  0  0
    0.4630    6.2720   -1.5710 C   0  0  0  0  0  0  0  0  0  0  0  0
   -1.2000   -1.8820   -0.5460 C   0  0  0  0  0  0  0  0  0  0  0  0
   -1.2820    1.7920   -0.0180 C   0  0  0  0  0  0  0  0  0  0  0  0
    1.2610    7.2420   -2.2450 C   0  0  0  0  0  0  0  0  0  0  0  0
   -0.1990    2.7030   -0.5930 C   0  0  0  0  0  0  0  0  0  0  0  0
   -2.6760    2.3540   -0.2880 C   0  0  0  0  0  0  0  0  0  0  0  0
   -0.3900    4.1350   -0.1130 C   0  0  0  0  0  0  0  0  0  0  0  0
   -2.7710    3.8030    0.1810 C   0  0  0  0  0  0  0  0  0  0  0  0
   -1.4440    0.6960   -2.8270 O   0  0  0  0  0  0  0  0  0  0  0  0
   -3.2000    6.1340   -1.3680 O   0  0  0  0  0  0  0  0  0  0  0  0
    0.5560   -0.6940    0.8580 C   0  0  0  0  0  0  0  0  0  0  0  0
    1.0490    9.5940   -3.8100 S   0  0  0  0  0  0  0  0  0  0  0  0
    0.8000   -0.5490    2.2330 C   0  0  0  0  0  0  0  0  0  0  0  0
    1.6560   -0.8120   -0.0070 C   0  0  0  0  0  0  0  0  0  0  0  0
    2.7500    9.1550   -4.2210 C   0  0  0  0  0  0  0  0  0  0  0  0
    2.1050   -0.5280    2.7290 C   0  0  0  0  0  0  0  0  0  0  0  0
    2.9610   -0.7910    0.4910 C   0  0  0  0  0  0  0  0  0  0  0  0
    3.1850   -0.6490    1.8580 C   0  0  0  0  0  0  0  0  0  0  0  0
   -1.4440   -0.6950    1.2790 H   0  0  0  0  0  0  0  0  0  0  0  0
    0.8610    5.4330   -1.0200 H   0  0  0  0  0  0  0  0  0  0  0  0
   -2.1920   -2.2720   -0.3170 H   0  0  0  0  0  0  0  0  0  0  0  0
   -0.4610   -2.6730   -0.4200 H   0  0  0  0  0  0  0  0  0  0  0  0
   -1.1390    1.7580    1.0620 H   0  0  0  0  0  0  0  0  0  0  0  0
    2.3410    7.2260   -2.2660 H   0  0  0  0  0  0  0  0  0  0  0  0
    0.7790    2.3450   -0.2700 H   0  0  0  0  0  0  0  0  0  0  0  0
   -0.2530    2.6800   -1.6810 H   0  0  0  0  0  0  0  0  0  0  0  0
   -2.8790    2.3100   -1.3580 H   0  0  0  0  0  0  0  0  0  0  0  0
   -3.4130    1.7550    0.2470 H   0  0  0  0  0  0  0  0  0  0  0  0
    0.3490    4.7700   -0.6020 H   0  0  0  0  0  0  0  0  0  0  0  0
   -0.2390    4.1660    0.9660 H   0  0  0  0  0  0  0  0  0  0  0  0
   -2.6640    3.8290    1.2650 H   0  0  0  0  0  0  0  0  0  0  0  0
   -3.7480    4.1980   -0.0970 H   0  0  0  0  0  0  0  0  0  0  0  0
   -0.0320   -0.4530    2.9150 H   0  0  0  0  0  0  0  0  0  0  0  0
    1.4910   -0.9200   -1.0690 H   0  0  0  0  0  0  0  0  0  0  0  0
    3.1990    9.9530   -4.8120 H   0  0  0  0  0  0  0  0  0  0  0  0
    2.7570    8.2290   -4.7960 H   0  0  0  0  0  0  0  0  0  0  0  0
    3.3220    9.0170   -3.3030 H   0  0  0  0  0  0  0  0  0  0  0  0
    2.2770   -0.4180    3.7890 H   0  0  0  0  0  0  0  0  0  0  0  0
    3.7980   -0.8850   -0.1850 H   0  0  0  0  0  0  0  0  0  0  0  0
    4.1940   -0.6330    2.2420 H   0  0  0  0  0  0  0  0  0  0  0  0
  1  2  1  0  0  0  0
  1  7  1  0  0  0  0
  1 12  1  0  0  0  0
  2  8  1  0  0  0  0
  2 18  2  0  0  0  0
  3  4  1  0  0  0  0
  3  5  1  0  0  0  0
  3 10  2  0  0  0  0
  4  6  1  0  0  0  0
  4 19  2  0  0  0  0
  5  9  1  0  0  0  0
  6 16  1  0  0  0  0
  6 17  1  0  0  0  0
  7 11  1  0  0  0  0
  7 20  1  0  0  0  0
  7 28  1  1  0  0  0
  8 11  1  0  0  0  0
  9 13  2  0  0  0  0
  9 21  1  0  0  0  0
 10 13  1  0  0  0  0
 10 29  1  0  0  0  0
 11 30  1  0  0  0  0
 11 31  1  0  0  0  0
 12 14  1  0  0  0  0
 12 15  1  0  0  0  0
 12 32  1  0  0  0  0
 13 33  1  0  0  0  0
 14 16  1  0  0  0  0
 14 34  1  0  0  0  0
 14 35  1  0  0  0  0
 15 17  1  0  0  0  0
 15 36  1  0  0  0  0
 15 37  1  0  0  0  0
 16 38  1  0  0  0  0
 16 39  1  0  0  0  0
 17 40  1  0  0  0  0
 17 41  1  0  0  0  0
 20 22  2  0  0  0  0
 20 23  1  0  0  0  0
 21 24  1  0  0  0  0
 22 25  1  0  0  0  0
 22 42  1  0  0  0  0
 23 26  2  0  0  0  0
 23 43  1  0  0  0  0
 24 44  1  0  0  0  0
 24 45  1  0  0  0  0
 24 46  1  0  0  0  0
 25 27  2  0  0  0  0
 25 47  1  0  0  0  0
 26 27  1  0  0  0  0
 26 48  1  0  0  0  0
 27 49  1  0  0  0  0
M  END
>  <$CLUSTER>
695

>  <INDEX>
455659

$$$$
