Chembridge 5859646
 OpenBabel04062209303D

 49 50  0  0  0  0  0  0  0  0999 V2000
    1.5520   -0.1890    2.2980 C   0  0  0  0  0  0  0  0  0  0  0  0
   -0.9820    0.2830   -1.0830 N   0  0  0  0  0  0  0  0  0  0  0  0
    0.9820   -0.2830    1.0830 N   0  0  0  0  0  0  0  0  0  0  0  0
   -1.4900    0.2850   -2.3190 C   0  0  0  0  0  0  0  0  0  0  0  0
   -0.0020   -5.0320    6.9990 C   0  0  0  0  0  0  0  0  0  0  0  0
    0.2610   -4.1940    6.1790 C   0  0  0  0  0  0  0  0  0  0  0  0
    1.1820   -1.2540    3.3000 C   0  0  0  0  0  0  0  0  0  0  0  0
   -0.3220   -6.0550    7.9950 C   0  0  0  0  0  0  0  0  0  0  0  0
   -0.0330    1.3000   -0.5920 C   0  0  0  0  0  0  0  0  0  0  0  0
   -1.2520   -0.6880   -0.0050 C   0  0  0  0  0  0  0  0  0  0  0  0
    0.0330   -1.3000    0.5920 C   0  0  0  0  0  0  0  0  0  0  0  0
    1.2520    0.6880    0.0050 C   0  0  0  0  0  0  0  0  0  0  0  0
   -1.2450    1.1090   -3.1950 O   0  0  0  0  0  0  0  0  0  0  0  0
    2.3400    0.7000    2.6280 O   0  0  0  0  0  0  0  0  0  0  0  0
    0.5760   -3.1960    5.2020 C   0  0  0  0  0  0  0  0  0  0  0  0
    2.0900   -1.5260    4.3280 C   0  0  0  0  0  0  0  0  0  0  0  0
   -0.0260   -1.9320    3.2280 C   0  0  0  0  0  0  0  0  0  0  0  0
   -2.3450   -0.7470   -2.5560 O   0  0  0  0  0  0  0  0  0  0  0  0
   -0.3280   -2.9080    4.1810 C   0  0  0  0  0  0  0  0  0  0  0  0
    1.7830   -2.5040    5.2770 C   0  0  0  0  0  0  0  0  0  0  0  0
   -0.3100   -7.3460    7.3800 O   0  0  0  0  0  0  0  0  0  0  0  0
    0.7340   -6.0750    9.1040 C   0  0  0  0  0  0  0  0  0  0  0  0
   -1.7120   -5.8200    8.5920 C   0  0  0  0  0  0  0  0  0  0  0  0
   -2.9540   -0.8650   -3.8280 C   0  0  0  0  0  0  0  0  0  0  0  0
   -3.8540   -2.0830   -3.8400 C   0  0  0  0  0  0  0  0  0  0  0  0
   -0.5260    1.8920    0.1790 H   0  0  0  0  0  0  0  0  0  0  0  0
    0.2450    1.9470   -1.4240 H   0  0  0  0  0  0  0  0  0  0  0  0
   -1.8650   -1.4940   -0.4090 H   0  0  0  0  0  0  0  0  0  0  0  0
   -1.7970   -0.1810    0.7910 H   0  0  0  0  0  0  0  0  0  0  0  0
   -0.2450   -1.9470    1.4240 H   0  0  0  0  0  0  0  0  0  0  0  0
    0.5260   -1.8920   -0.1790 H   0  0  0  0  0  0  0  0  0  0  0  0
    1.7970    0.1810   -0.7910 H   0  0  0  0  0  0  0  0  0  0  0  0
    1.8650    1.4940    0.4090 H   0  0  0  0  0  0  0  0  0  0  0  0
    3.0220   -0.9840    4.3880 H   0  0  0  0  0  0  0  0  0  0  0  0
   -0.7290   -1.7070    2.4400 H   0  0  0  0  0  0  0  0  0  0  0  0
   -1.2660   -3.4410    4.1260 H   0  0  0  0  0  0  0  0  0  0  0  0
    2.4820   -2.7240    6.0700 H   0  0  0  0  0  0  0  0  0  0  0  0
    0.5650   -7.4830    7.0090 H   0  0  0  0  0  0  0  0  0  0  0  0
    1.7180   -6.2430    8.6660 H   0  0  0  0  0  0  0  0  0  0  0  0
    0.5080   -6.8770    9.8070 H   0  0  0  0  0  0  0  0  0  0  0  0
    0.7280   -5.1200    9.6290 H   0  0  0  0  0  0  0  0  0  0  0  0
   -2.4530   -5.8080    7.7930 H   0  0  0  0  0  0  0  0  0  0  0  0
   -1.7260   -4.8640    9.1150 H   0  0  0  0  0  0  0  0  0  0  0  0
   -1.9460   -6.6210    9.2930 H   0  0  0  0  0  0  0  0  0  0  0  0
   -2.1840   -0.9730   -4.5920 H   0  0  0  0  0  0  0  0  0  0  0  0
   -3.5460    0.0270   -4.0330 H   0  0  0  0  0  0  0  0  0  0  0  0
   -3.2610   -2.9750   -3.6350 H   0  0  0  0  0  0  0  0  0  0  0  0
   -4.3250   -2.1770   -4.8180 H   0  0  0  0  0  0  0  0  0  0  0  0
   -4.6230   -1.9740   -3.0750 H   0  0  0  0  0  0  0  0  0  0  0  0
  1  3  1  0  0  0  0
  1  7  1  0  0  0  0
  1 14  2  0  0  0  0
  2  4  1  0  0  0  0
  2  9  1  0  0  0  0
  2 10  1  0  0  0  0
  3 11  1  0  0  0  0
  3 12  1  0  0  0  0
  4 13  2  0  0  0  0
  4 18  1  0  0  0  0
  5  6  3  0  0  0  0
  5  8  1  0  0  0  0
  6 15  1  0  0  0  0
  7 16  1  0  0  0  0
  7 17  2  0  0  0  0
  8 21  1  0  0  0  0
  8 22  1  0  0  0  0
  8 23  1  0  0  0  0
  9 12  1  0  0  0  0
  9 26  1  0  0  0  0
  9 27  1  0  0  0  0
 10 11  1  0  0  0  0
 10 28  1  0  0  0  0
 10 29  1  0  0  0  0
 11 30  1  0  0  0  0
 11 31  1  0  0  0  0
 12 32  1  0  0  0  0
 12 33  1  0  0  0  0
 15 19  2  0  0  0  0
 15 20  1  0  0  0  0
 16 20  2  0  0  0  0
 16 34  1  0  0  0  0
 17 19  1  0  0  0  0
 17 35  1  0  0  0  0
 18 24  1  0  0  0  0
 19 36  1  0  0  0  0
 20 37  1  0  0  0  0
 21 38  1  0  0  0  0
 22 39  1  0  0  0  0
 22 40  1  0  0  0  0
 22 41  1  0  0  0  0
 23 42  1  0  0  0  0
 23 43  1  0  0  0  0
 23 44  1  0  0  0  0
 24 25  1  0  0  0  0
 24 45  1  0  0  0  0
 24 46  1  0  0  0  0
 25 47  1  0  0  0  0
 25 48  1  0  0  0  0
 25 49  1  0  0  0  0
M  END
>  <$CLUSTER>
78

>  <INDEX>
53762

$$$$
