Specs AK-968/37053096
 OpenBabel04062209303D

 37 39  0  0  1  0  0  0  0  0999 V2000
   -1.2020    0.7680    1.7300 N   0  0  0  0  0  0  0  0  0  0  0  0
   -1.8840    1.4150    2.7580 C   0  0  0  0  0  0  0  0  0  0  0  0
   -0.3850    0.4710   -0.2140 C   0  0  0  0  0  0  0  0  0  0  0  0
   -1.0630    1.3230    0.4930 N   0  0  0  0  0  0  0  0  0  0  0  0
   -0.6090   -0.4790    1.8800 C   0  0  0  0  0  0  0  0  0  0  0  0
    0.0050   -0.7730    0.5370 C   0  0  2  0  0  0  0  0  0  0  0  0
   -2.0590    0.9530    3.9780 N   0  0  0  0  0  0  0  0  0  0  0  0
   -2.5780    2.9560    2.4450 S   0  0  0  0  0  0  0  0  0  0  0  0
   -0.0170    0.6820   -1.6390 C   0  0  0  0  0  0  0  0  0  0  0  0
   -2.7830    1.8650    4.7190 C   0  0  0  0  0  0  0  0  0  0  0  0
   -3.1550    3.0140    4.0560 C   0  0  0  0  0  0  0  0  0  0  0  0
   -0.5690   -1.1840    2.8730 O   0  0  0  0  0  0  0  0  0  0  0  0
    1.4840   -0.9980    0.6060 C   0  0  0  0  0  0  0  0  0  0  0  0
    2.0220   -2.0630    0.1140 N   0  0  0  0  0  0  0  0  0  0  0  0
   -0.3510   -0.3850   -2.4090 F   0  0  0  0  0  0  0  0  0  0  0  0
   -0.6320    1.7630   -2.1800 F   0  0  0  0  0  0  0  0  0  0  0  0
    1.3180    0.8740   -1.7920 F   0  0  0  0  0  0  0  0  0  0  0  0
   -3.1610    1.7020    6.0800 C   0  0  0  0  0  0  0  0  0  0  0  0
   -3.9000    4.0370    4.6860 C   0  0  0  0  0  0  0  0  0  0  0  0
    3.4720   -2.1030    0.2760 C   0  0  0  0  0  0  0  0  0  0  0  0
    3.9860   -3.3930   -0.3380 C   0  0  0  0  0  0  0  0  0  0  0  0
   -3.8980    2.7070    6.7140 C   0  0  0  0  0  0  0  0  0  0  0  0
   -4.2610    3.8590    6.0240 C   0  0  0  0  0  0  0  0  0  0  0  0
    5.5150   -3.4940   -0.1870 C   0  0  0  0  0  0  0  0  0  0  0  0
   -0.3350   -1.6980    0.0710 H   0  0  0  0  0  0  0  0  0  0  0  0
    2.1120   -0.2560    1.0760 H   0  0  0  0  0  0  0  0  0  0  0  0
   -2.8810    0.8090    6.6200 H   0  0  0  0  0  0  0  0  0  0  0  0
   -4.1820    4.9300    4.1490 H   0  0  0  0  0  0  0  0  0  0  0  0
    3.7250   -2.0730    1.3360 H   0  0  0  0  0  0  0  0  0  0  0  0
    3.9230   -1.2490   -0.2300 H   0  0  0  0  0  0  0  0  0  0  0  0
    3.7290   -3.4130   -1.3970 H   0  0  0  0  0  0  0  0  0  0  0  0
    3.5200   -4.2400    0.1650 H   0  0  0  0  0  0  0  0  0  0  0  0
   -4.1880    2.5880    7.7480 H   0  0  0  0  0  0  0  0  0  0  0  0
   -4.8290    4.6260    6.5290 H   0  0  0  0  0  0  0  0  0  0  0  0
    5.9860   -2.6490   -0.6890 H   0  0  0  0  0  0  0  0  0  0  0  0
    5.8640   -4.4240   -0.6360 H   0  0  0  0  0  0  0  0  0  0  0  0
    5.7770   -3.4810    0.8710 H   0  0  0  0  0  0  0  0  0  0  0  0
  1  2  1  0  0  0  0
  1  4  1  0  0  0  0
  1  5  1  0  0  0  0
  2  7  2  0  0  0  0
  2  8  1  0  0  0  0
  3  4  2  0  0  0  0
  3  6  1  0  0  0  0
  3  9  1  0  0  0  0
  5  6  1  0  0  0  0
  5 12  2  0  0  0  0
  6 13  1  0  0  0  0
  6 25  1  6  0  0  0
  7 10  1  0  0  0  0
  8 11  1  0  0  0  0
  9 15  1  0  0  0  0
  9 16  1  0  0  0  0
  9 17  1  0  0  0  0
 10 11  2  0  0  0  0
 10 18  1  0  0  0  0
 11 19  1  0  0  0  0
 13 14  2  0  0  0  0
 13 26  1  0  0  0  0
 14 20  1  0  0  0  0
 18 22  2  0  0  0  0
 18 27  1  0  0  0  0
 19 23  2  0  0  0  0
 19 28  1  0  0  0  0
 20 21  1  0  0  0  0
 20 29  1  0  0  0  0
 20 30  1  0  0  0  0
 21 24  1  0  0  0  0
 21 31  1  0  0  0  0
 21 32  1  0  0  0  0
 22 23  1  0  0  0  0
 22 33  1  0  0  0  0
 23 34  1  0  0  0  0
 24 35  1  0  0  0  0
 24 36  1  0  0  0  0
 24 37  1  0  0  0  0
M  END
>  <$CLUSTER>
765

>  <INDEX>
503343

$$$$
