InterBioScreen STOCK3S-07953
 OpenBabel04062209303D

 40 42  0  0  0  0  0  0  0  0999 V2000
   -1.9210   -0.4700    0.0410 N   0  0  0  0  0  0  0  0  0  0  0  0
    3.5750    0.4630   -0.8310 C   0  0  0  0  0  0  0  0  0  0  0  0
   -2.0200    0.1470    1.1970 C   0  0  0  0  0  0  0  0  0  0  0  0
    0.1070    0.3810    0.6370 C   0  0  0  0  0  0  0  0  0  0  0  0
    2.1220    0.2000   -0.6160 C   0  0  0  0  0  0  0  0  0  0  0  0
   -0.8250    0.6760    1.5980 N   0  0  0  0  0  0  0  0  0  0  0  0
    8.4840    1.0230    2.6460 C   0  0  0  0  0  0  0  0  0  0  0  0
    7.8040    1.0950    1.4030 C   0  0  0  0  0  0  0  0  0  0  0  0
   -0.6010   -0.3360   -0.3240 C   0  0  0  0  0  0  0  0  0  0  0  0
    1.4680    0.6690    0.5280 C   0  0  0  0  0  0  0  0  0  0  0  0
    5.7090    0.9150    0.2720 N   0  0  0  0  0  0  0  0  0  0  0  0
    9.8720    1.2490    2.6660 C   0  0  0  0  0  0  0  0  0  0  0  0
    4.3410    0.6610    0.2970 N   0  0  0  0  0  0  0  0  0  0  0  0
    4.0400    0.4830   -1.9680 O   0  0  0  0  0  0  0  0  0  0  0  0
    1.4380   -0.5220   -1.5970 C   0  0  0  0  0  0  0  0  0  0  0  0
    6.3250    0.8570    1.3600 C   0  0  0  0  0  0  0  0  0  0  0  0
    0.0710   -0.7990   -1.4670 C   0  0  0  0  0  0  0  0  0  0  0  0
    8.4990    1.3800    0.2390 C   0  0  0  0  0  0  0  0  0  0  0  0
   10.5590    1.5370    1.4840 C   0  0  0  0  0  0  0  0  0  0  0  0
    9.8750    1.6030    0.2720 C   0  0  0  0  0  0  0  0  0  0  0  0
    7.7260    0.7320    3.7760 O   0  0  0  0  0  0  0  0  0  0  0  0
   11.9140    1.7350    1.6540 O   0  0  0  0  0  0  0  0  0  0  0  0
    8.4220    0.6630    5.0270 C   0  0  0  0  0  0  0  0  0  0  0  0
   12.6680    2.0330    0.4840 C   0  0  0  0  0  0  0  0  0  0  0  0
   -2.9360    0.2270    1.7630 H   0  0  0  0  0  0  0  0  0  0  0  0
   -0.6580    1.1920    2.4500 H   0  0  0  0  0  0  0  0  0  0  0  0
    1.9910    1.2270    1.2900 H   0  0  0  0  0  0  0  0  0  0  0  0
   10.4100    1.2000    3.6010 H   0  0  0  0  0  0  0  0  0  0  0  0
    3.8820    0.6190    1.1960 H   0  0  0  0  0  0  0  0  0  0  0  0
    1.9710   -0.8720   -2.4690 H   0  0  0  0  0  0  0  0  0  0  0  0
    5.7890    0.6350    2.2710 H   0  0  0  0  0  0  0  0  0  0  0  0
   -0.4540   -1.3560   -2.2290 H   0  0  0  0  0  0  0  0  0  0  0  0
    7.9710    1.4300   -0.7020 H   0  0  0  0  0  0  0  0  0  0  0  0
   10.4090    1.8260   -0.6400 H   0  0  0  0  0  0  0  0  0  0  0  0
    7.7150    0.4290    5.8230 H   0  0  0  0  0  0  0  0  0  0  0  0
    8.8970    1.6230    5.2320 H   0  0  0  0  0  0  0  0  0  0  0  0
    9.1830   -0.1160    4.9770 H   0  0  0  0  0  0  0  0  0  0  0  0
   13.7160    2.1660    0.7510 H   0  0  0  0  0  0  0  0  0  0  0  0
   12.2890    2.9490    0.0310 H   0  0  0  0  0  0  0  0  0  0  0  0
   12.5760    1.2120   -0.2270 H   0  0  0  0  0  0  0  0  0  0  0  0
  1  3  2  0  0  0  0
  1  9  1  0  0  0  0
  2  5  1  0  0  0  0
  2 13  1  0  0  0  0
  2 14  2  0  0  0  0
  3  6  1  0  0  0  0
  3 25  1  0  0  0  0
  4  6  1  0  0  0  0
  4  9  1  0  0  0  0
  4 10  2  0  0  0  0
  5 10  1  0  0  0  0
  5 15  2  0  0  0  0
  6 26  1  0  0  0  0
  7  8  2  0  0  0  0
  7 12  1  0  0  0  0
  7 21  1  0  0  0  0
  8 16  1  0  0  0  0
  8 18  1  0  0  0  0
  9 17  2  0  0  0  0
 10 27  1  0  0  0  0
 11 13  1  0  0  0  0
 11 16  2  0  0  0  0
 12 19  2  0  0  0  0
 12 28  1  0  0  0  0
 13 29  1  0  0  0  0
 15 17  1  0  0  0  0
 15 30  1  0  0  0  0
 16 31  1  0  0  0  0
 17 32  1  0  0  0  0
 18 20  2  0  0  0  0
 18 33  1  0  0  0  0
 19 20  1  0  0  0  0
 19 22  1  0  0  0  0
 20 34  1  0  0  0  0
 21 23  1  0  0  0  0
 22 24  1  0  0  0  0
 23 35  1  0  0  0  0
 23 36  1  0  0  0  0
 23 37  1  0  0  0  0
 24 38  1  0  0  0  0
 24 39  1  0  0  0  0
 24 40  1  0  0  0  0
M  END
>  <$CLUSTER>
521

>  <INDEX>
341558

$$$$
