Chembridge 9014479
 OpenBabel04062209303D

 40 42  0  0  1  0  0  0  0  0999 V2000
    1.6260    0.0260   -0.1900 N   0  0  0  0  0  0  0  0  0  0  0  0
    2.2610    0.3720    0.9690 C   0  0  0  0  0  0  0  0  0  0  0  0
   -0.3480    1.3280    0.5000 C   0  0  0  0  0  0  0  0  0  0  0  0
    0.2610    0.4040   -0.5590 C   0  0  2  0  0  0  0  0  0  0  0  0
    3.4600   -0.1660    0.9510 N   0  0  0  0  0  0  0  0  0  0  0  0
    0.3250    1.6510    1.6300 C   0  0  0  0  0  0  0  0  0  0  0  0
    1.6090    1.1550    1.8530 N   0  0  0  0  0  0  0  0  0  0  0  0
    2.4360   -0.7090   -0.9640 N   0  0  0  0  0  0  0  0  0  0  0  0
    3.5530   -0.8330   -0.2550 N   0  0  0  0  0  0  0  0  0  0  0  0
   -0.5760   -0.8400   -0.8050 C   0  0  0  0  0  0  0  0  0  0  0  0
   -1.7120    1.8320    0.2600 C   0  0  0  0  0  0  0  0  0  0  0  0
   -1.1170   -1.0750   -2.0790 C   0  0  0  0  0  0  0  0  0  0  0  0
   -2.6340    1.7880    1.0610 O   0  0  0  0  0  0  0  0  0  0  0  0
   -1.8050    2.3440   -0.9900 O   0  0  0  0  0  0  0  0  0  0  0  0
   -1.8930   -2.2100   -2.3230 C   0  0  0  0  0  0  0  0  0  0  0  0
   -0.1900    2.5700    2.7070 C   0  0  0  0  0  0  0  0  0  0  0  0
   -0.8330   -1.7690    0.2170 C   0  0  0  0  0  0  0  0  0  0  0  0
   -2.3580   -2.3120   -3.6180 O   0  0  0  0  0  0  0  0  0  0  0  0
   -1.6090   -2.9020   -0.0300 C   0  0  0  0  0  0  0  0  0  0  0  0
   -2.1390   -3.1220   -1.3000 C   0  0  0  0  0  0  0  0  0  0  0  0
   -3.1590   -3.4500   -3.9300 C   0  0  0  0  0  0  0  0  0  0  0  0
   -3.0800    2.8750   -1.3760 C   0  0  0  0  0  0  0  0  0  0  0  0
   -3.5560   -3.3560   -5.3930 C   0  0  0  0  0  0  0  0  0  0  0  0
    0.2800    0.9690   -1.4910 H   0  0  0  0  0  0  0  0  0  0  0  0
    2.0730    1.3930    2.7180 H   0  0  0  0  0  0  0  0  0  0  0  0
   -0.9310   -0.3720   -2.8770 H   0  0  0  0  0  0  0  0  0  0  0  0
    0.5530    2.6530    3.5000 H   0  0  0  0  0  0  0  0  0  0  0  0
   -1.1150    2.1660    3.1180 H   0  0  0  0  0  0  0  0  0  0  0  0
   -0.3810    3.5560    2.2830 H   0  0  0  0  0  0  0  0  0  0  0  0
   -0.4260   -1.6050    1.2040 H   0  0  0  0  0  0  0  0  0  0  0  0
   -1.7990   -3.6090    0.7640 H   0  0  0  0  0  0  0  0  0  0  0  0
   -2.7400   -3.9990   -1.4910 H   0  0  0  0  0  0  0  0  0  0  0  0
   -4.0510   -3.4570   -3.3040 H   0  0  0  0  0  0  0  0  0  0  0  0
   -2.5880   -4.3630   -3.7590 H   0  0  0  0  0  0  0  0  0  0  0  0
   -3.0220    3.2530   -2.3970 H   0  0  0  0  0  0  0  0  0  0  0  0
   -3.3540    3.6870   -0.7030 H   0  0  0  0  0  0  0  0  0  0  0  0
   -3.8330    2.0880   -1.3220 H   0  0  0  0  0  0  0  0  0  0  0  0
   -4.1260   -2.4420   -5.5570 H   0  0  0  0  0  0  0  0  0  0  0  0
   -4.1670   -4.2180   -5.6600 H   0  0  0  0  0  0  0  0  0  0  0  0
   -2.6590   -3.3410   -6.0130 H   0  0  0  0  0  0  0  0  0  0  0  0
  1  2  1  0  0  0  0
  1  4  1  0  0  0  0
  1  8  1  0  0  0  0
  2  5  2  0  0  0  0
  2  7  1  0  0  0  0
  3  4  1  0  0  0  0
  3  6  2  0  0  0  0
  3 11  1  0  0  0  0
  4 10  1  0  0  0  0
  4 24  1  6  0  0  0
  5  9  1  0  0  0  0
  6  7  1  0  0  0  0
  6 16  1  0  0  0  0
  7 25  1  0  0  0  0
  8  9  2  0  0  0  0
 10 12  2  0  0  0  0
 10 17  1  0  0  0  0
 11 13  2  0  0  0  0
 11 14  1  0  0  0  0
 12 15  1  0  0  0  0
 12 26  1  0  0  0  0
 14 22  1  0  0  0  0
 15 18  1  0  0  0  0
 15 20  2  0  0  0  0
 16 27  1  0  0  0  0
 16 28  1  0  0  0  0
 16 29  1  0  0  0  0
 17 19  2  0  0  0  0
 17 30  1  0  0  0  0
 18 21  1  0  0  0  0
 19 20  1  0  0  0  0
 19 31  1  0  0  0  0
 20 32  1  0  0  0  0
 21 23  1  0  0  0  0
 21 33  1  0  0  0  0
 21 34  1  0  0  0  0
 22 35  1  0  0  0  0
 22 36  1  0  0  0  0
 22 37  1  0  0  0  0
 23 38  1  0  0  0  0
 23 39  1  0  0  0  0
 23 40  1  0  0  0  0
M  END
>  <$CLUSTER>
742

>  <INDEX>
110513

$$$$
