Maybridge RJF 01152
 OpenBabel04062209303D

 37 38  0  0  0  0  0  0  0  0999 V2000
    2.1510   -1.4070    0.0110 C   0  0  0  0  0  0  0  0  0  0  0  0
    2.8930   -0.4810    0.6520 N   0  0  0  0  0  0  0  0  0  0  0  0
    0.7880   -1.0480   -0.2460 O   0  0  0  0  0  0  0  0  0  0  0  0
    4.1670   -0.8470    0.8770 C   0  0  0  0  0  0  0  0  0  0  0  0
    0.4010    0.1910    0.1910 C   0  0  0  0  0  0  0  0  0  0  0  0
    4.7300   -2.0200    0.5250 N   0  0  0  0  0  0  0  0  0  0  0  0
    2.5880   -2.6320   -0.4050 C   0  0  0  0  0  0  0  0  0  0  0  0
    3.9170   -2.8910   -0.1140 C   0  0  0  0  0  0  0  0  0  0  0  0
   -0.9390    0.4700   -0.0960 N   0  0  0  0  0  0  0  0  0  0  0  0
    5.0440    0.1370    1.5870 C   0  0  0  0  0  0  0  0  0  0  0  0
    1.1600    0.9640    0.7720 O   0  0  0  0  0  0  0  0  0  0  0  0
    6.3960   -0.1490    1.8720 C   0  0  0  0  0  0  0  0  0  0  0  0
    4.5490    1.3940    1.9980 C   0  0  0  0  0  0  0  0  0  0  0  0
    6.6940    2.0050    2.9270 C   0  0  0  0  0  0  0  0  0  0  0  0
    5.3640    2.3160    2.6590 C   0  0  0  0  0  0  0  0  0  0  0  0
    7.2110    0.7740    2.5340 C   0  0  0  0  0  0  0  0  0  0  0  0
    7.6750    3.1380    3.7350 Cl  0  0  0  0  0  0  0  0  0  0  0  0
    1.7200   -3.6250   -1.1150 C   0  0  0  0  0  0  0  0  0  0  0  0
    4.5140   -4.2070   -0.5200 C   0  0  0  0  0  0  0  0  0  0  0  0
   -1.5200    1.7450    0.2980 C   0  0  0  0  0  0  0  0  0  0  0  0
   -1.8310   -0.4560   -0.7860 C   0  0  0  0  0  0  0  0  0  0  0  0
    6.8100   -1.1010    1.5730 H   0  0  0  0  0  0  0  0  0  0  0  0
    3.5190    1.6480    1.7970 H   0  0  0  0  0  0  0  0  0  0  0  0
    4.9620    3.2710    2.9620 H   0  0  0  0  0  0  0  0  0  0  0  0
    8.2430    0.5320    2.7410 H   0  0  0  0  0  0  0  0  0  0  0  0
    0.7190   -3.2110   -1.2360 H   0  0  0  0  0  0  0  0  0  0  0  0
    1.6650   -4.5430   -0.5300 H   0  0  0  0  0  0  0  0  0  0  0  0
    2.1440   -3.8430   -2.0950 H   0  0  0  0  0  0  0  0  0  0  0  0
    5.5600   -4.2410   -0.2150 H   0  0  0  0  0  0  0  0  0  0  0  0
    4.4470   -4.3180   -1.6020 H   0  0  0  0  0  0  0  0  0  0  0  0
    3.9680   -5.0180   -0.0380 H   0  0  0  0  0  0  0  0  0  0  0  0
   -0.7650    2.3480    0.8010 H   0  0  0  0  0  0  0  0  0  0  0  0
   -2.3560    1.5700    0.9760 H   0  0  0  0  0  0  0  0  0  0  0  0
   -1.8750    2.2720   -0.5880 H   0  0  0  0  0  0  0  0  0  0  0  0
   -1.2890   -1.3700   -1.0300 H   0  0  0  0  0  0  0  0  0  0  0  0
   -2.1950    0.0060   -1.7040 H   0  0  0  0  0  0  0  0  0  0  0  0
   -2.6760   -0.6960   -0.1400 H   0  0  0  0  0  0  0  0  0  0  0  0
  1  2  1  0  0  0  0
  1  3  1  0  0  0  0
  1  7  2  0  0  0  0
  2  4  2  0  0  0  0
  3  5  1  0  0  0  0
  4  6  1  0  0  0  0
  4 10  1  0  0  0  0
  5  9  1  0  0  0  0
  5 11  2  0  0  0  0
  6  8  2  0  0  0  0
  7  8  1  0  0  0  0
  7 18  1  0  0  0  0
  8 19  1  0  0  0  0
  9 20  1  0  0  0  0
  9 21  1  0  0  0  0
 10 12  1  0  0  0  0
 10 13  2  0  0  0  0
 12 16  2  0  0  0  0
 12 22  1  0  0  0  0
 13 15  1  0  0  0  0
 13 23  1  0  0  0  0
 14 15  2  0  0  0  0
 14 16  1  0  0  0  0
 14 17  1  0  0  0  0
 15 24  1  0  0  0  0
 16 25  1  0  0  0  0
 18 26  1  0  0  0  0
 18 27  1  0  0  0  0
 18 28  1  0  0  0  0
 19 29  1  0  0  0  0
 19 30  1  0  0  0  0
 19 31  1  0  0  0  0
 20 32  1  0  0  0  0
 20 33  1  0  0  0  0
 20 34  1  0  0  0  0
 21 35  1  0  0  0  0
 21 36  1  0  0  0  0
 21 37  1  0  0  0  0
M  END
>  <$CLUSTER>
949

>  <INDEX>
619839

$$$$
