Tripos 1518-03381
 OpenBabel04062209303D

 50 53  0  0  1  0  0  0  0  0999 V2000
   -0.0020   -1.2270   -0.7280 C   0  0  0  0  0  0  0  0  0  0  0  0
    1.6410   -1.5170   -2.6070 C   0  0  0  0  0  0  0  0  0  0  0  0
    0.2090   -0.0700    0.1200 C   0  0  0  0  0  0  0  0  0  0  0  0
    2.6700   -2.2540   -3.2200 N   0  0  0  0  0  0  0  0  0  0  0  0
   -2.3470   -0.3230   -0.1630 S   0  0  0  0  0  0  0  0  0  0  0  0
   -1.3460   -1.4540   -0.9460 C   0  0  0  0  0  0  0  0  0  0  0  0
    1.0910   -2.0820   -1.3060 C   0  0  0  0  0  0  0  0  0  0  0  0
   -1.0020    0.5180    0.5010 C   0  0  0  0  0  0  0  0  0  0  0  0
    1.6550   -3.5430   -5.2160 N   0  3  2  0  0  0  0  0  0  0  0  0
    1.4070    0.5230    0.5960 C   0  0  0  0  0  0  0  0  0  0  0  0
    1.1950   -0.4700   -3.0800 O   0  0  0  0  0  0  0  0  0  0  0  0
    3.2490   -1.7770   -4.4700 C   0  0  0  0  0  0  0  0  0  0  0  0
   -0.9190   -0.6140   -7.7410 N   0  0  0  0  0  0  0  0  0  0  0  0
    0.5230   -3.7580   -6.1630 C   0  0  0  0  0  0  0  0  0  0  0  0
   -1.0440    1.6600    1.3270 C   0  0  0  0  0  0  0  0  0  0  0  0
   -0.3410   -2.5280   -6.3730 C   0  0  0  0  0  0  0  0  0  0  0  0
    2.6870   -2.5400   -5.7080 C   0  0  0  0  0  0  0  0  0  0  0  0
    1.3700    1.6550    1.4150 C   0  0  0  0  0  0  0  0  0  0  0  0
    3.4450   -4.5860   -3.7720 C   0  0  0  0  0  0  0  0  0  0  0  0
    3.2370   -3.4980   -2.7060 C   0  0  0  0  0  0  0  0  0  0  0  0
    0.1550    2.2160    1.7760 C   0  0  0  0  0  0  0  0  0  0  0  0
    2.8360    2.3330    1.9620 Cl  0  0  0  0  0  0  0  0  0  0  0  0
    2.2330   -4.8300   -4.6800 C   0  0  0  0  0  0  0  0  0  0  0  0
   -0.1960   -1.7410   -7.5050 C   0  0  0  0  0  0  0  0  0  0  0  0
   -1.8140   -0.2560   -6.7860 C   0  0  0  0  0  0  0  0  0  0  0  0
   -1.2590   -2.1220   -5.4010 C   0  0  0  0  0  0  0  0  0  0  0  0
   -2.0150   -0.9710   -5.6140 C   0  0  0  0  0  0  0  0  0  0  0  0
   -1.7230   -2.2650   -1.5510 H   0  0  0  0  0  0  0  0  0  0  0  0
    0.6920   -3.0780   -1.4980 H   0  0  0  0  0  0  0  0  0  0  0  0
    1.9030   -2.1490   -0.5820 H   0  0  0  0  0  0  0  0  0  0  0  0
    1.2500   -3.0910   -4.4080 H   0  0  0  0  0  0  0  0  0  0  0  0
    2.3600    0.0940    0.3220 H   0  0  0  0  0  0  0  0  0  0  0  0
    4.3290   -1.9170   -4.4320 H   0  0  0  0  0  0  0  0  0  0  0  0
    3.0230   -0.7160   -4.5790 H   0  0  0  0  0  0  0  0  0  0  0  0
   -0.1060   -4.5570   -5.7710 H   0  0  0  0  0  0  0  0  0  0  0  0
    0.9340   -4.0580   -7.1270 H   0  0  0  0  0  0  0  0  0  0  0  0
   -1.9900    2.0980    1.6080 H   0  0  0  0  0  0  0  0  0  0  0  0
    2.2190   -1.8350   -6.3950 H   0  0  0  0  0  0  0  0  0  0  0  0
    3.4960   -3.0620   -6.2190 H   0  0  0  0  0  0  0  0  0  0  0  0
    3.6820   -5.5200   -3.2630 H   0  0  0  0  0  0  0  0  0  0  0  0
    4.2860   -4.2910   -4.3990 H   0  0  0  0  0  0  0  0  0  0  0  0
    2.5640   -3.8910   -1.9440 H   0  0  0  0  0  0  0  0  0  0  0  0
    4.2040   -3.2720   -2.2550 H   0  0  0  0  0  0  0  0  0  0  0  0
    0.1360    3.0900    2.4100 H   0  0  0  0  0  0  0  0  0  0  0  0
    2.5430   -5.4520   -5.5200 H   0  0  0  0  0  0  0  0  0  0  0  0
    1.4640   -5.3490   -4.1080 H   0  0  0  0  0  0  0  0  0  0  0  0
    0.5340   -2.0410   -8.2420 H   0  0  0  0  0  0  0  0  0  0  0  0
   -2.4030    0.6350   -6.9470 H   0  0  0  0  0  0  0  0  0  0  0  0
   -1.3810   -2.6950   -4.4940 H   0  0  0  0  0  0  0  0  0  0  0  0
   -2.7400   -0.6430   -4.8840 H   0  0  0  0  0  0  0  0  0  0  0  0
  1  3  1  0  0  0  0
  1  6  2  0  0  0  0
  1  7  1  0  0  0  0
  2  4  1  0  0  0  0
  2  7  1  0  0  0  0
  2 11  2  0  0  0  0
  3  8  2  0  0  0  0
  3 10  1  0  0  0  0
  4 12  1  0  0  0  0
  4 20  1  0  0  0  0
  5  6  1  0  0  0  0
  5  8  1  0  0  0  0
  6 28  1  0  0  0  0
  7 29  1  0  0  0  0
  7 30  1  0  0  0  0
  8 15  1  0  0  0  0
  9 14  1  0  0  0  0
  9 17  1  0  0  0  0
  9 23  1  0  0  0  0
  9 31  1  1  0  0  0
 10 18  2  0  0  0  0
 10 32  1  0  0  0  0
 12 17  1  0  0  0  0
 12 33  1  0  0  0  0
 12 34  1  0  0  0  0
 13 24  2  0  0  0  0
 13 25  1  0  0  0  0
 14 16  1  0  0  0  0
 14 35  1  0  0  0  0
 14 36  1  0  0  0  0
 15 21  2  0  0  0  0
 15 37  1  0  0  0  0
 16 24  1  0  0  0  0
 16 26  2  0  0  0  0
 17 38  1  0  0  0  0
 17 39  1  0  0  0  0
 18 21  1  0  0  0  0
 18 22  1  0  0  0  0
 19 20  1  0  0  0  0
 19 23  1  0  0  0  0
 19 40  1  0  0  0  0
 19 41  1  0  0  0  0
 20 42  1  0  0  0  0
 20 43  1  0  0  0  0
 21 44  1  0  0  0  0
 23 45  1  0  0  0  0
 23 46  1  0  0  0  0
 24 47  1  0  0  0  0
 25 27  2  0  0  0  0
 25 48  1  0  0  0  0
 26 27  1  0  0  0  0
 26 49  1  0  0  0  0
 27 50  1  0  0  0  0
M  CHG  1   9   1
M  END
>  <$CLUSTER>
674

>  <INDEX>
443046

$$$$
