Specs AG-205/07903010
 OpenBabel04062209303D

 38 40  0  0  0  0  0  0  0  0999 V2000
    0.2990   -0.6230   -0.2970 N   0  3  0  0  0  0  0  0  0  0  0  0
    0.6710    3.0390    2.9640 C   0  0  0  0  0  0  0  0  0  0  0  0
    1.8580    2.4730    3.3450 O   0  0  0  0  0  0  0  0  0  0  0  0
    0.4420    4.1700    3.7260 C   0  0  0  0  0  0  0  0  0  0  0  0
   -0.2380    0.5920    0.3150 C   0  0  0  0  0  0  0  0  0  0  0  0
    2.3720    3.2410    4.3390 C   0  0  0  0  0  0  0  0  0  0  0  0
    5.9290    3.5700    7.4840 C   0  0  0  0  0  0  0  0  0  0  0  0
   -0.0570    2.3630    1.8930 C   0  0  0  0  0  0  0  0  0  0  0  0
    4.1940    3.5030    5.8490 N   0  0  0  0  0  0  0  0  0  0  0  0
    0.4710    1.1690    1.2920 C   0  0  0  0  0  0  0  0  0  0  0  0
    1.5390    4.2980    4.6120 C   0  0  0  0  0  0  0  0  0  0  0  0
    1.3820   -1.0670    0.1110 O   0  5  0  0  0  0  0  0  0  0  0  0
   -0.3690   -1.1450   -1.2000 O   0  0  0  0  0  0  0  0  0  0  0  0
    3.6290    2.8340    4.9000 C   0  0  0  0  0  0  0  0  0  0  0  0
    7.2400    2.9130    7.8280 C   0  0  0  0  0  0  0  0  0  0  0  0
    5.3760    2.9860    6.2720 N   0  0  0  0  0  0  0  0  0  0  0  0
    5.4460    4.4660    8.1240 O   0  0  0  0  0  0  0  0  0  0  0  0
    8.0970    2.3240    6.9380 C   0  0  0  0  0  0  0  0  0  0  0  0
    7.5980    3.0060    9.2050 C   0  0  0  0  0  0  0  0  0  0  0  0
    9.6600    1.8410    8.7220 C   0  0  0  0  0  0  0  0  0  0  0  0
    8.8070    2.4570    9.6360 C   0  0  0  0  0  0  0  0  0  0  0  0
    9.3060    1.7770    7.3760 C   0  0  0  0  0  0  0  0  0  0  0  0
   10.7930    1.3380    9.2120 F   0  0  0  0  0  0  0  0  0  0  0  0
   -1.5450    1.0740   -0.2200 C   0  0  0  0  0  0  0  0  0  0  0  0
   -1.2840    2.8730    1.4380 C   0  0  0  0  0  0  0  0  0  0  0  0
   -1.9910    2.2360    0.4140 C   0  0  0  0  0  0  0  0  0  0  0  0
   -0.4110    4.8300    3.6580 H   0  0  0  0  0  0  0  0  0  0  0  0
    1.4110    0.7500    1.6190 H   0  0  0  0  0  0  0  0  0  0  0  0
    1.6900    5.0700    5.3520 H   0  0  0  0  0  0  0  0  0  0  0  0
    4.1140    1.9470    4.5190 H   0  0  0  0  0  0  0  0  0  0  0  0
    5.8430    2.2410    5.7750 H   0  0  0  0  0  0  0  0  0  0  0  0
    7.8370    2.2820    5.8910 H   0  0  0  0  0  0  0  0  0  0  0  0
    6.9400    3.4960    9.9080 H   0  0  0  0  0  0  0  0  0  0  0  0
    9.0820    2.5100   10.6790 H   0  0  0  0  0  0  0  0  0  0  0  0
    9.9690    1.3020    6.6680 H   0  0  0  0  0  0  0  0  0  0  0  0
   -2.0870    0.5780   -1.0120 H   0  0  0  0  0  0  0  0  0  0  0  0
   -1.6870    3.7700    1.8850 H   0  0  0  0  0  0  0  0  0  0  0  0
   -2.9300    2.6640    0.0970 H   0  0  0  0  0  0  0  0  0  0  0  0
  1  5  1  0  0  0  0
  1 12  1  0  0  0  0
  1 13  2  0  0  0  0
  2  3  1  0  0  0  0
  2  4  2  0  0  0  0
  2  8  1  0  0  0  0
  3  6  1  0  0  0  0
  4 11  1  0  0  0  0
  4 27  1  0  0  0  0
  5 10  2  0  0  0  0
  5 24  1  0  0  0  0
  6 11  2  0  0  0  0
  6 14  1  0  0  0  0
  7 15  1  0  0  0  0
  7 16  1  0  0  0  0
  7 17  2  0  0  0  0
  8 10  1  0  0  0  0
  8 25  2  0  0  0  0
  9 14  2  0  0  0  0
  9 16  1  0  0  0  0
 10 28  1  0  0  0  0
 11 29  1  0  0  0  0
 14 30  1  0  0  0  0
 15 18  1  0  0  0  0
 15 19  2  0  0  0  0
 16 31  1  0  0  0  0
 18 22  2  0  0  0  0
 18 32  1  0  0  0  0
 19 21  1  0  0  0  0
 19 33  1  0  0  0  0
 20 21  2  0  0  0  0
 20 22  1  0  0  0  0
 20 23  1  0  0  0  0
 21 34  1  0  0  0  0
 22 35  1  0  0  0  0
 24 26  2  0  0  0  0
 24 36  1  0  0  0  0
 25 26  1  0  0  0  0
 25 37  1  0  0  0  0
 26 38  1  0  0  0  0
M  CHG  2   1   1  12  -1
M  END
>  <$CLUSTER>
940

>  <INDEX>
492692

$$$$
