Asinex ASN 04479736
 OpenBabel04062209303D

 51 54  0  0  0  0  0  0  0  0999 V2000
   -1.3140    0.4740    0.3810 S   0  0  0  0  0  0  0  0  0  0  0  0
    0.1650   -0.1170   -0.2130 N   0  0  0  0  0  0  0  0  0  0  0  0
   -1.2430   -1.1090    6.1740 N   0  0  0  0  0  0  0  0  0  0  0  0
   -1.6980   -2.2710    6.6940 N   0  0  0  0  0  0  0  0  0  0  0  0
   -1.5010   -2.2060    8.0010 N   0  0  0  0  0  0  0  0  0  0  0  0
   -0.9250   -1.0190    8.3520 N   0  0  0  0  0  0  0  0  0  0  0  0
   -1.2780   -0.0280    2.0990 C   0  0  0  0  0  0  0  0  0  0  0  0
   -0.7700   -0.3560    7.2300 C   0  0  0  0  0  0  0  0  0  0  0  0
   -1.2760   -0.7830    4.7650 C   0  0  0  0  0  0  0  0  0  0  0  0
    0.2440   -1.5410   -0.5970 C   0  0  0  0  0  0  0  0  0  0  0  0
   -1.7890   -1.6480    3.7970 C   0  0  0  0  0  0  0  0  0  0  0  0
   -1.7930   -1.2710    2.4530 C   0  0  0  0  0  0  0  0  0  0  0  0
   -1.2790    1.9250    0.3260 O   0  0  0  0  0  0  0  0  0  0  0  0
   -2.3890   -0.2470   -0.2790 O   0  0  0  0  0  0  0  0  0  0  0  0
   -0.0580   -1.6970   -2.0790 C   0  0  0  0  0  0  0  0  0  0  0  0
   -0.7670    0.4630    4.3940 C   0  0  0  0  0  0  0  0  0  0  0  0
    1.0080   -1.5990   -2.9080 O   0  0  0  0  0  0  0  0  0  0  0  0
   -0.7680    0.8470    3.0520 C   0  0  0  0  0  0  0  0  0  0  0  0
    1.4230    0.5810    0.1670 C   0  0  0  0  0  0  0  0  0  0  0  0
   -1.2120   -1.9320   -2.7660 C   0  0  0  0  0  0  0  0  0  0  0  0
    0.5200   -1.7750   -4.1640 C   0  0  0  0  0  0  0  0  0  0  0  0
   -0.8390   -1.9830   -4.1300 C   0  0  0  0  0  0  0  0  0  0  0  0
   -2.3720   -3.0310    4.0830 C   0  0  0  0  0  0  0  0  0  0  0  0
    2.2880    0.7890   -1.0740 C   0  0  0  0  0  0  0  0  0  0  0  0
    2.1960   -0.1390    1.2690 C   0  0  0  0  0  0  0  0  0  0  0  0
    3.6100    1.4770   -0.7370 C   0  0  0  0  0  0  0  0  0  0  0  0
    3.4900    0.5370    1.6040 C   0  0  0  0  0  0  0  0  0  0  0  0
    4.3600    0.7380    0.3670 C   0  0  0  0  0  0  0  0  0  0  0  0
   -0.3380    0.6300    7.1460 H   0  0  0  0  0  0  0  0  0  0  0  0
   -0.4820   -2.1120   -0.0180 H   0  0  0  0  0  0  0  0  0  0  0  0
    1.2470   -1.9150   -0.3920 H   0  0  0  0  0  0  0  0  0  0  0  0
   -2.1900   -1.9340    1.6990 H   0  0  0  0  0  0  0  0  0  0  0  0
   -0.3720    1.1300    5.1460 H   0  0  0  0  0  0  0  0  0  0  0  0
   -0.3780    1.8100    2.7580 H   0  0  0  0  0  0  0  0  0  0  0  0
    1.1490    1.5500    0.5840 H   0  0  0  0  0  0  0  0  0  0  0  0
   -2.2030   -2.0540   -2.3550 H   0  0  0  0  0  0  0  0  0  0  0  0
    1.1170   -1.7540   -5.0640 H   0  0  0  0  0  0  0  0  0  0  0  0
   -1.4910   -2.1510   -4.9750 H   0  0  0  0  0  0  0  0  0  0  0  0
   -2.3240   -3.2310    5.1530 H   0  0  0  0  0  0  0  0  0  0  0  0
   -1.7970   -3.7860    3.5460 H   0  0  0  0  0  0  0  0  0  0  0  0
   -3.4110   -3.0630    3.7540 H   0  0  0  0  0  0  0  0  0  0  0  0
    1.7410    1.4070   -1.7860 H   0  0  0  0  0  0  0  0  0  0  0  0
    2.5000   -0.1810   -1.5230 H   0  0  0  0  0  0  0  0  0  0  0  0
    2.4090   -1.1560    0.9380 H   0  0  0  0  0  0  0  0  0  0  0  0
    1.5770   -0.1710    2.1660 H   0  0  0  0  0  0  0  0  0  0  0  0
    3.4050    2.4950   -0.4060 H   0  0  0  0  0  0  0  0  0  0  0  0
    4.2330    1.5040   -1.6310 H   0  0  0  0  0  0  0  0  0  0  0  0
    4.0340   -0.0770    2.3220 H   0  0  0  0  0  0  0  0  0  0  0  0
    3.2760    1.5100    2.0470 H   0  0  0  0  0  0  0  0  0  0  0  0
    5.2400    1.3180    0.6450 H   0  0  0  0  0  0  0  0  0  0  0  0
    4.6700   -0.2370   -0.0090 H   0  0  0  0  0  0  0  0  0  0  0  0
  1  2  1  0  0  0  0
  1  7  1  0  0  0  0
  1 13  2  0  0  0  0
  1 14  2  0  0  0  0
  2 10  1  0  0  0  0
  2 19  1  0  0  0  0
  3  4  1  0  0  0  0
  3  8  1  0  0  0  0
  3  9  1  0  0  0  0
  4  5  2  0  0  0  0
  5  6  1  0  0  0  0
  6  8  2  0  0  0  0
  7 12  2  0  0  0  0
  7 18  1  0  0  0  0
  8 29  1  0  0  0  0
  9 11  2  0  0  0  0
  9 16  1  0  0  0  0
 10 15  1  0  0  0  0
 10 30  1  0  0  0  0
 10 31  1  0  0  0  0
 11 12  1  0  0  0  0
 11 23  1  0  0  0  0
 12 32  1  0  0  0  0
 15 17  1  0  0  0  0
 15 20  2  0  0  0  0
 16 18  2  0  0  0  0
 16 33  1  0  0  0  0
 17 21  1  0  0  0  0
 18 34  1  0  0  0  0
 19 24  1  0  0  0  0
 19 25  1  0  0  0  0
 19 35  1  0  0  0  0
 20 22  1  0  0  0  0
 20 36  1  0  0  0  0
 21 22  2  0  0  0  0
 21 37  1  0  0  0  0
 22 38  1  0  0  0  0
 23 39  1  0  0  0  0
 23 40  1  0  0  0  0
 23 41  1  0  0  0  0
 24 26  1  0  0  0  0
 24 42  1  0  0  0  0
 24 43  1  0  0  0  0
 25 27  1  0  0  0  0
 25 44  1  0  0  0  0
 25 45  1  0  0  0  0
 26 28  1  0  0  0  0
 26 46  1  0  0  0  0
 26 47  1  0  0  0  0
 27 28  1  0  0  0  0
 27 48  1  0  0  0  0
 27 49  1  0  0  0  0
 28 50  1  0  0  0  0
 28 51  1  0  0  0  0
M  END
>  <$CLUSTER>
216

>  <INDEX>
140148

$$$$
