Asinex ASN 05110337
 OpenBabel04062209303D

 51 55  0  0  0  0  0  0  0  0999 V2000
   -1.6600    1.2410    1.4910 C   0  0  0  0  0  0  0  0  0  0  0  0
   -2.5070    2.4880    1.6330 C   0  0  0  0  0  0  0  0  0  0  0  0
   -3.1540    2.6430    2.8370 N   0  0  0  0  0  0  0  0  0  0  0  0
   -0.1810   -0.1080    0.0310 N   0  0  0  0  0  0  0  0  0  0  0  0
   -1.6050    0.4050    2.5270 C   0  0  0  0  0  0  0  0  0  0  0  0
   -3.0690    1.7530    3.8750 C   0  0  0  0  0  0  0  0  0  0  0  0
    1.1870   -0.1980    0.2990 C   0  0  0  0  0  0  0  0  0  0  0  0
   -2.3210    0.6500    3.7580 C   0  0  0  0  0  0  0  0  0  0  0  0
   -0.9710    1.1270    0.1400 C   0  0  0  0  0  0  0  0  0  0  0  0
   -3.7830    2.0080    5.0880 C   0  0  0  0  0  0  0  0  0  0  0  0
   -3.6920    1.0980    6.1400 C   0  0  0  0  0  0  0  0  0  0  0  0
   -2.9090   -0.0500    6.0080 C   0  0  0  0  0  0  0  0  0  0  0  0
   -2.2140   -0.2960    4.8220 C   0  0  0  0  0  0  0  0  0  0  0  0
   -0.9040   -1.4580   -1.9090 C   0  0  0  0  0  0  0  0  0  0  0  0
   -0.8980   -1.3140   -0.3950 C   0  0  0  0  0  0  0  0  0  0  0  0
    1.8770    1.0660    0.7510 C   0  0  0  0  0  0  0  0  0  0  0  0
    0.1550   -2.1130   -2.4340 O   0  0  0  0  0  0  0  0  0  0  0  0
   -2.6060    3.3080    0.7230 O   0  0  0  0  0  0  0  0  0  0  0  0
    1.8450   -1.2350    0.1760 O   0  0  0  0  0  0  0  0  0  0  0  0
   -4.3810    1.4230    7.2960 O   0  0  0  0  0  0  0  0  0  0  0  0
   -2.7950   -1.0140    6.9940 O   0  0  0  0  0  0  0  0  0  0  0  0
   -1.7640   -1.0250   -2.8690 C   0  0  0  0  0  0  0  0  0  0  0  0
   -0.0420   -2.1140   -3.7780 C   0  0  0  0  0  0  0  0  0  0  0  0
   -1.2070   -1.4570   -4.0960 C   0  0  0  0  0  0  0  0  0  0  0  0
    3.0280    0.9340    1.5110 C   0  0  0  0  0  0  0  0  0  0  0  0
    1.3780    2.3190    0.4110 C   0  0  0  0  0  0  0  0  0  0  0  0
    3.2060    3.3420    1.6230 C   0  0  0  0  0  0  0  0  0  0  0  0
    2.0510    3.4620    0.8520 C   0  0  0  0  0  0  0  0  0  0  0  0
    3.6950    2.0790    1.9500 C   0  0  0  0  0  0  0  0  0  0  0  0
    3.7820    4.4830    2.0050 F   0  0  0  0  0  0  0  0  0  0  0  0
   -3.9350    0.6210    8.4040 C   0  0  0  0  0  0  0  0  0  0  0  0
   -3.8100   -0.8430    8.0000 C   0  0  0  0  0  0  0  0  0  0  0  0
   -3.7280    3.4650    2.9640 H   0  0  0  0  0  0  0  0  0  0  0  0
   -1.0030   -0.4880    2.4440 H   0  0  0  0  0  0  0  0  0  0  0  0
   -0.3080    1.9820    0.0090 H   0  0  0  0  0  0  0  0  0  0  0  0
   -1.7290    1.1310   -0.6440 H   0  0  0  0  0  0  0  0  0  0  0  0
   -4.3870    2.8980    5.1880 H   0  0  0  0  0  0  0  0  0  0  0  0
   -1.6080   -1.1830    4.7120 H   0  0  0  0  0  0  0  0  0  0  0  0
   -1.9270   -1.2570   -0.0410 H   0  0  0  0  0  0  0  0  0  0  0  0
   -0.4120   -2.1870    0.0410 H   0  0  0  0  0  0  0  0  0  0  0  0
   -2.6790   -0.4690   -2.7250 H   0  0  0  0  0  0  0  0  0  0  0  0
    0.6240   -2.5680   -4.4970 H   0  0  0  0  0  0  0  0  0  0  0  0
   -1.6150   -1.3020   -5.0840 H   0  0  0  0  0  0  0  0  0  0  0  0
    3.4060   -0.0460    1.7620 H   0  0  0  0  0  0  0  0  0  0  0  0
    0.4820    2.4080   -0.1860 H   0  0  0  0  0  0  0  0  0  0  0  0
    1.6750    4.4410    0.5950 H   0  0  0  0  0  0  0  0  0  0  0  0
    4.5920    1.9860    2.5440 H   0  0  0  0  0  0  0  0  0  0  0  0
   -4.6540    0.7060    9.2190 H   0  0  0  0  0  0  0  0  0  0  0  0
   -2.9630    0.9830    8.7380 H   0  0  0  0  0  0  0  0  0  0  0  0
   -3.5460   -1.4340    8.8770 H   0  0  0  0  0  0  0  0  0  0  0  0
   -4.7660   -1.1870    7.6050 H   0  0  0  0  0  0  0  0  0  0  0  0
  1  2  1  0  0  0  0
  1  5  2  0  0  0  0
  1  9  1  0  0  0  0
  2  3  1  0  0  0  0
  2 18  2  0  0  0  0
  3  6  1  0  0  0  0
  3 33  1  0  0  0  0
  4  7  1  0  0  0  0
  4  9  1  0  0  0  0
  4 15  1  0  0  0  0
  5  8  1  0  0  0  0
  5 34  1  0  0  0  0
  6  8  1  0  0  0  0
  6 10  2  0  0  0  0
  7 16  1  0  0  0  0
  7 19  2  0  0  0  0
  8 13  2  0  0  0  0
  9 35  1  0  0  0  0
  9 36  1  0  0  0  0
 10 11  1  0  0  0  0
 10 37  1  0  0  0  0
 11 12  2  0  0  0  0
 11 20  1  0  0  0  0
 12 13  1  0  0  0  0
 12 21  1  0  0  0  0
 13 38  1  0  0  0  0
 14 15  1  0  0  0  0
 14 17  1  0  0  0  0
 14 22  2  0  0  0  0
 15 39  1  0  0  0  0
 15 40  1  0  0  0  0
 16 25  1  0  0  0  0
 16 26  2  0  0  0  0
 17 23  1  0  0  0  0
 20 31  1  0  0  0  0
 21 32  1  0  0  0  0
 22 24  1  0  0  0  0
 22 41  1  0  0  0  0
 23 24  2  0  0  0  0
 23 42  1  0  0  0  0
 24 43  1  0  0  0  0
 25 29  2  0  0  0  0
 25 44  1  0  0  0  0
 26 28  1  0  0  0  0
 26 45  1  0  0  0  0
 27 28  2  0  0  0  0
 27 29  1  0  0  0  0
 27 30  1  0  0  0  0
 28 46  1  0  0  0  0
 29 47  1  0  0  0  0
 31 32  1  0  0  0  0
 31 48  1  0  0  0  0
 31 49  1  0  0  0  0
 32 50  1  0  0  0  0
 32 51  1  0  0  0  0
M  END
>  <$CLUSTER>
225

>  <INDEX>
143704

$$$$
