Chem T&I AMCLME-05084
 OpenBabel04062209303D

 45 47  0  0  0  0  0  0  0  0999 V2000
   -1.0040    0.8330    0.0570 C   0  0  0  0  0  0  0  0  0  0  0  0
    2.4760   -2.9860   -1.1660 C   0  0  0  0  0  0  0  0  0  0  0  0
    1.0300   -1.2640   -0.0600 N   0  3  0  0  0  0  0  0  0  0  0  0
   -0.7350    0.0280   -1.2180 C   0  0  0  0  0  0  0  0  0  0  0  0
   -0.5910    0.0280    1.2940 C   0  0  0  0  0  0  0  0  0  0  0  0
    3.7160   -3.5450   -1.2460 N   0  0  0  0  0  0  0  0  0  0  0  0
   -0.2600    2.0480    0.0370 O   0  0  0  0  0  0  0  0  0  0  0  0
   -2.3970    1.1260    0.1170 O   0  0  0  0  0  0  0  0  0  0  0  0
    2.4040   -1.8730   -0.1380 C   0  0  0  0  0  0  0  0  0  0  0  0
    1.5080   -3.3280   -1.8410 O   0  0  0  0  0  0  0  0  0  0  0  0
    0.7050   -0.4620   -1.2970 C   0  0  0  0  0  0  0  0  0  0  0  0
    0.8480   -0.4630    1.2080 C   0  0  0  0  0  0  0  0  0  0  0  0
    4.1960   -4.5940   -2.0650 C   0  0  0  0  0  0  0  0  0  0  0  0
    5.2610   -6.6630   -3.6390 C   0  0  0  0  0  0  0  0  0  0  0  0
    3.3920   -5.2640   -2.9910 C   0  0  0  0  0  0  0  0  0  0  0  0
    5.5410   -4.9730   -1.9380 C   0  0  0  0  0  0  0  0  0  0  0  0
    6.0700   -6.0020   -2.7200 C   0  0  0  0  0  0  0  0  0  0  0  0
    3.9250   -6.2940   -3.7740 C   0  0  0  0  0  0  0  0  0  0  0  0
    5.8910   -7.6550   -4.3500 O   0  0  0  0  0  0  0  0  0  0  0  0
   -1.1930    3.0630    0.3650 C   0  0  0  0  0  0  0  0  0  0  0  0
   -2.4960    2.5170   -0.1520 C   0  0  0  0  0  0  0  0  0  0  0  0
    5.1080   -8.3630   -5.3040 C   0  0  0  0  0  0  0  0  0  0  0  0
    0.3640   -2.0220   -0.0230 H   0  0  0  0  0  0  0  0  0  0  0  0
   -0.9380    0.6610   -2.0820 H   0  0  0  0  0  0  0  0  0  0  0  0
   -1.4010   -0.8350   -1.2350 H   0  0  0  0  0  0  0  0  0  0  0  0
   -1.2510   -0.8340    1.3880 H   0  0  0  0  0  0  0  0  0  0  0  0
   -0.6940    0.6610    2.1750 H   0  0  0  0  0  0  0  0  0  0  0  0
    4.4020   -3.1470   -0.6210 H   0  0  0  0  0  0  0  0  0  0  0  0
    3.1180   -1.0960   -0.4100 H   0  0  0  0  0  0  0  0  0  0  0  0
    2.6650   -2.2790    0.8390 H   0  0  0  0  0  0  0  0  0  0  0  0
    0.8280   -1.0890   -2.1800 H   0  0  0  0  0  0  0  0  0  0  0  0
    1.3770    0.3940   -1.3630 H   0  0  0  0  0  0  0  0  0  0  0  0
    1.5240    0.3920    1.1980 H   0  0  0  0  0  0  0  0  0  0  0  0
    1.0700   -1.0920    2.0700 H   0  0  0  0  0  0  0  0  0  0  0  0
    2.3550   -4.9860   -3.1030 H   0  0  0  0  0  0  0  0  0  0  0  0
    6.1740   -4.4630   -1.2270 H   0  0  0  0  0  0  0  0  0  0  0  0
    7.1070   -6.2850   -2.6110 H   0  0  0  0  0  0  0  0  0  0  0  0
    3.2960   -6.8060   -4.4870 H   0  0  0  0  0  0  0  0  0  0  0  0
   -0.9390    4.0010   -0.1290 H   0  0  0  0  0  0  0  0  0  0  0  0
   -1.2360    3.2200    1.4430 H   0  0  0  0  0  0  0  0  0  0  0  0
   -3.3410    2.9580    0.3770 H   0  0  0  0  0  0  0  0  0  0  0  0
   -2.6000    2.7020   -1.2210 H   0  0  0  0  0  0  0  0  0  0  0  0
    5.7250   -9.1160   -5.7940 H   0  0  0  0  0  0  0  0  0  0  0  0
    4.7260   -7.6660   -6.0500 H   0  0  0  0  0  0  0  0  0  0  0  0
    4.2730   -8.8490   -4.8000 H   0  0  0  0  0  0  0  0  0  0  0  0
  1  4  1  0  0  0  0
  1  5  1  0  0  0  0
  1  7  1  0  0  0  0
  1  8  1  0  0  0  0
  2  6  1  0  0  0  0
  2  9  1  0  0  0  0
  2 10  2  0  0  0  0
  3  9  1  0  0  0  0
  3 11  1  0  0  0  0
  3 12  1  0  0  0  0
  3 23  1  0  0  0  0
  4 11  1  0  0  0  0
  4 24  1  0  0  0  0
  4 25  1  0  0  0  0
  5 12  1  0  0  0  0
  5 26  1  0  0  0  0
  5 27  1  0  0  0  0
  6 13  1  0  0  0  0
  6 28  1  0  0  0  0
  7 20  1  0  0  0  0
  8 21  1  0  0  0  0
  9 29  1  0  0  0  0
  9 30  1  0  0  0  0
 11 31  1  0  0  0  0
 11 32  1  0  0  0  0
 12 33  1  0  0  0  0
 12 34  1  0  0  0  0
 13 15  1  0  0  0  0
 13 16  2  0  0  0  0
 14 17  2  0  0  0  0
 14 18  1  0  0  0  0
 14 19  1  0  0  0  0
 15 18  2  0  0  0  0
 15 35  1  0  0  0  0
 16 17  1  0  0  0  0
 16 36  1  0  0  0  0
 17 37  1  0  0  0  0
 18 38  1  0  0  0  0
 19 22  1  0  0  0  0
 20 21  1  0  0  0  0
 20 39  1  0  0  0  0
 20 40  1  0  0  0  0
 21 41  1  0  0  0  0
 21 42  1  0  0  0  0
 22 43  1  0  0  0  0
 22 44  1  0  0  0  0
 22 45  1  0  0  0  0
M  CHG  1   3   1
M  END
>  <$CLUSTER>
777

>  <INDEX>
508469

$$$$
