Bionet 10W-0283
 OpenBabel04062209303D

 36 37  0  0  0  0  0  0  0  0999 V2000
   -0.2140   -0.6230   -0.6780 N   0  0  0  0  0  0  0  0  0  0  0  0
   -0.4680    0.1930   -2.1730 S   0  0  0  0  0  0  0  0  0  0  0  0
   -1.2140   -0.5160    0.0830 N   0  0  0  0  0  0  0  0  0  0  0  0
    0.9120   -0.1380    0.0870 C   0  0  0  0  0  0  0  0  0  0  0  0
    0.5330    0.1490    1.3400 C   0  0  0  0  0  0  0  0  0  0  0  0
   -0.9150   -0.0720    1.3390 C   0  0  0  0  0  0  0  0  0  0  0  0
   -1.8200   -0.7450   -2.8590 C   0  0  0  0  0  0  0  0  0  0  0  0
   -0.9450    1.5420   -1.9310 O   0  0  0  0  0  0  0  0  0  0  0  0
    0.6660   -0.0420   -3.0490 O   0  0  0  0  0  0  0  0  0  0  0  0
   -1.6650    0.1140    2.2840 O   0  0  0  0  0  0  0  0  0  0  0  0
   -1.5820   -1.8680   -3.6560 C   0  0  0  0  0  0  0  0  0  0  0  0
   -3.1480   -0.3250   -2.6250 C   0  0  0  0  0  0  0  0  0  0  0  0
    1.2900    0.6620    2.5090 C   0  0  0  0  0  0  0  0  0  0  0  0
    2.2840   -0.0940   -0.4870 C   0  0  0  0  0  0  0  0  0  0  0  0
   -4.2110   -1.0390   -3.1820 C   0  0  0  0  0  0  0  0  0  0  0  0
   -2.6490   -2.5760   -4.2090 C   0  0  0  0  0  0  0  0  0  0  0  0
   -3.9610   -2.1620   -3.9720 C   0  0  0  0  0  0  0  0  0  0  0  0
    2.2890    0.1220    4.6300 O   0  0  0  0  0  0  0  0  0  0  0  0
    1.5580   -0.4290    3.5350 C   0  0  0  0  0  0  0  0  0  0  0  0
   -5.1000   -2.9260   -4.5680 C   0  0  0  0  0  0  0  0  0  0  0  0
   -2.1540   -0.7390   -0.2110 H   0  0  0  0  0  0  0  0  0  0  0  0
   -0.5680   -2.1890   -3.8440 H   0  0  0  0  0  0  0  0  0  0  0  0
   -3.3410    0.5460   -2.0170 H   0  0  0  0  0  0  0  0  0  0  0  0
    0.7120    1.4560    2.9820 H   0  0  0  0  0  0  0  0  0  0  0  0
    2.2430    1.0620    2.1630 H   0  0  0  0  0  0  0  0  0  0  0  0
    2.2480   -0.3860   -1.5370 H   0  0  0  0  0  0  0  0  0  0  0  0
    2.9290   -0.7820    0.0600 H   0  0  0  0  0  0  0  0  0  0  0  0
    2.6800    0.9180   -0.4050 H   0  0  0  0  0  0  0  0  0  0  0  0
   -5.2270   -0.7220   -3.0010 H   0  0  0  0  0  0  0  0  0  0  0  0
   -2.4600   -3.4450   -4.8210 H   0  0  0  0  0  0  0  0  0  0  0  0
    2.4440   -0.5850    5.2610 H   0  0  0  0  0  0  0  0  0  0  0  0
    2.1400   -1.2270    3.0740 H   0  0  0  0  0  0  0  0  0  0  0  0
    0.6110   -0.8310    3.8950 H   0  0  0  0  0  0  0  0  0  0  0  0
   -6.0420   -2.4600   -4.2770 H   0  0  0  0  0  0  0  0  0  0  0  0
   -5.0770   -3.9540   -4.2070 H   0  0  0  0  0  0  0  0  0  0  0  0
   -5.0120   -2.9210   -5.6540 H   0  0  0  0  0  0  0  0  0  0  0  0
  1  2  1  0  0  0  0
  1  3  1  0  0  0  0
  1  4  1  0  0  0  0
  2  7  1  0  0  0  0
  2  8  2  0  0  0  0
  2  9  2  0  0  0  0
  3  6  1  0  0  0  0
  3 21  1  0  0  0  0
  4  5  2  0  0  0  0
  4 14  1  0  0  0  0
  5  6  1  0  0  0  0
  5 13  1  0  0  0  0
  6 10  2  0  0  0  0
  7 11  1  0  0  0  0
  7 12  2  0  0  0  0
 11 16  2  0  0  0  0
 11 22  1  0  0  0  0
 12 15  1  0  0  0  0
 12 23  1  0  0  0  0
 13 19  1  0  0  0  0
 13 24  1  0  0  0  0
 13 25  1  0  0  0  0
 14 26  1  0  0  0  0
 14 27  1  0  0  0  0
 14 28  1  0  0  0  0
 15 17  2  0  0  0  0
 15 29  1  0  0  0  0
 16 17  1  0  0  0  0
 16 30  1  0  0  0  0
 17 20  1  0  0  0  0
 18 19  1  0  0  0  0
 18 31  1  0  0  0  0
 19 32  1  0  0  0  0
 19 33  1  0  0  0  0
 20 34  1  0  0  0  0
 20 35  1  0  0  0  0
 20 36  1  0  0  0  0
M  END
>  <$CLUSTER>
107

>  <INDEX>
8117

$$$$
