ASDI 100018405
 OpenBabel04062209303D

 31 32  0  0  0  0  0  0  0  0999 V2000
    2.7210   -2.0220   -0.6460 S   0  0  0  0  0  0  0  0  0  0  0  0
    1.2690   -1.6470    0.1860 N   0  0  0  0  0  0  0  0  0  0  0  0
    0.0960   -1.3580   -0.5980 C   0  0  0  0  0  0  0  0  0  0  0  0
   -0.4290   -0.0590   -0.6150 C   0  0  0  0  0  0  0  0  0  0  0  0
   -1.5390    0.2420   -1.4110 C   0  0  0  0  0  0  0  0  0  0  0  0
    0.2220    0.9220    0.1030 O   0  0  0  0  0  0  0  0  0  0  0  0
    3.7200   -2.3840    0.3410 O   0  0  0  0  0  0  0  0  0  0  0  0
    2.4630   -2.8800   -1.7840 O   0  0  0  0  0  0  0  0  0  0  0  0
   -0.5180   -2.3620   -1.3510 C   0  0  0  0  0  0  0  0  0  0  0  0
   -2.1460   -0.7650   -2.1610 C   0  0  0  0  0  0  0  0  0  0  0  0
    3.1640   -0.4130   -1.2630 C   0  0  0  0  0  0  0  0  0  0  0  0
   -0.5360    1.6610    0.9840 C   0  0  0  0  0  0  0  0  0  0  0  0
   -1.6390   -2.0650   -2.1270 C   0  0  0  0  0  0  0  0  0  0  0  0
   -3.5070   -0.3940   -3.1150 Cl  0  0  0  0  0  0  0  0  0  0  0  0
   -0.2900    3.0350    1.0260 C   0  0  0  0  0  0  0  0  0  0  0  0
   -1.4610    1.0860    1.8610 C   0  0  0  0  0  0  0  0  0  0  0  0
   -0.9960    3.8400    1.9200 C   0  0  0  0  0  0  0  0  0  0  0  0
   -2.1650    1.8960    2.7530 C   0  0  0  0  0  0  0  0  0  0  0  0
   -1.9360    3.2720    2.7810 C   0  0  0  0  0  0  0  0  0  0  0  0
    1.2370   -1.6290    1.1950 H   0  0  0  0  0  0  0  0  0  0  0  0
   -1.9250    1.2500   -1.4450 H   0  0  0  0  0  0  0  0  0  0  0  0
   -0.1250   -3.3680   -1.3320 H   0  0  0  0  0  0  0  0  0  0  0  0
    3.3640    0.2550   -0.4250 H   0  0  0  0  0  0  0  0  0  0  0  0
    2.3430   -0.0130   -1.8580 H   0  0  0  0  0  0  0  0  0  0  0  0
    4.0560   -0.4950   -1.8840 H   0  0  0  0  0  0  0  0  0  0  0  0
   -2.1160   -2.8440   -2.7030 H   0  0  0  0  0  0  0  0  0  0  0  0
    0.4450    3.4730    0.3680 H   0  0  0  0  0  0  0  0  0  0  0  0
   -1.6300    0.0190    1.8480 H   0  0  0  0  0  0  0  0  0  0  0  0
   -0.8150    4.9040    1.9460 H   0  0  0  0  0  0  0  0  0  0  0  0
   -2.8890    1.4570    3.4230 H   0  0  0  0  0  0  0  0  0  0  0  0
   -2.4860    3.8970    3.4690 H   0  0  0  0  0  0  0  0  0  0  0  0
  1  2  1  0  0  0  0
  1  7  2  0  0  0  0
  1  8  2  0  0  0  0
  1 11  1  0  0  0  0
  2  3  1  0  0  0  0
  2 20  1  0  0  0  0
  3  4  2  0  0  0  0
  3  9  1  0  0  0  0
  4  5  1  0  0  0  0
  4  6  1  0  0  0  0
  5 10  2  0  0  0  0
  5 21  1  0  0  0  0
  6 12  1  0  0  0  0
  9 13  2  0  0  0  0
  9 22  1  0  0  0  0
 10 13  1  0  0  0  0
 10 14  1  0  0  0  0
 11 23  1  0  0  0  0
 11 24  1  0  0  0  0
 11 25  1  0  0  0  0
 12 15  2  0  0  0  0
 12 16  1  0  0  0  0
 13 26  1  0  0  0  0
 15 17  1  0  0  0  0
 15 27  1  0  0  0  0
 16 18  2  0  0  0  0
 16 28  1  0  0  0  0
 17 19  2  0  0  0  0
 17 29  1  0  0  0  0
 18 19  1  0  0  0  0
 18 30  1  0  0  0  0
 19 31  1  0  0  0  0
M  END
>  <$CLUSTER>
839

>  <INDEX>
3627

$$$$
