Chem T&I NSB 0071574
 OpenBabel04062209303D

 49 51  0  0  0  0  0  0  0  0999 V2000
   -2.1070    0.0760    0.1270 S   0  0  0  0  0  0  0  0  0  0  0  0
   -0.8270   -0.9740    0.4440 N   0  0  0  0  0  0  0  0  0  0  0  0
   -1.1680    6.0780    5.8340 C   0  0  0  0  0  0  0  0  0  0  0  0
   -1.6380    4.7580    5.2730 C   0  0  0  0  0  0  0  0  0  0  0  0
    0.4600   -0.5320    0.0780 C   0  0  0  0  0  0  0  0  0  0  0  0
    1.1950   -0.0880    1.1100 N   0  0  0  0  0  0  0  0  0  0  0  0
    2.4240    0.3510    0.7870 C   0  0  0  0  0  0  0  0  0  0  0  0
    2.9520    0.3900   -0.4540 N   0  0  0  0  0  0  0  0  0  0  0  0
   -1.2090    4.5890    3.9620 N   0  0  0  0  0  0  0  0  0  0  0  0
   -1.8280    1.3940    1.3100 C   0  0  0  0  0  0  0  0  0  0  0  0
    0.8790   -0.5420   -1.2350 C   0  0  0  0  0  0  0  0  0  0  0  0
   -1.9710    0.6080   -1.2200 O   0  0  0  0  0  0  0  0  0  0  0  0
   -3.3310   -0.6190    0.5010 O   0  0  0  0  0  0  0  0  0  0  0  0
   -2.0660    6.8540    6.6130 C   0  0  0  0  0  0  0  0  0  0  0  0
    0.1480    6.4770    5.6660 C   0  0  0  0  0  0  0  0  0  0  0  0
    2.1540   -0.0640   -1.4470 C   0  0  0  0  0  0  0  0  0  0  0  0
   -2.3090    3.9890    5.9530 O   0  0  0  0  0  0  0  0  0  0  0  0
   -2.3870    1.3020    2.5760 C   0  0  0  0  0  0  0  0  0  0  0  0
   -1.0990    2.5080    0.9090 C   0  0  0  0  0  0  0  0  0  0  0  0
   -1.5990    8.0510    7.1680 C   0  0  0  0  0  0  0  0  0  0  0  0
   -1.4520    3.4700    3.0990 C   0  0  0  0  0  0  0  0  0  0  0  0
    0.5970    7.6710    6.2270 C   0  0  0  0  0  0  0  0  0  0  0  0
   -2.1910    2.3490    3.4790 C   0  0  0  0  0  0  0  0  0  0  0  0
   -0.9070    3.5510    1.8170 C   0  0  0  0  0  0  0  0  0  0  0  0
   -0.2750    8.4560    6.9750 C   0  0  0  0  0  0  0  0  0  0  0  0
    2.2110    8.1560    5.9880 Cl  0  0  0  0  0  0  0  0  0  0  0  0
   -3.3530    6.3950    6.7350 O   0  0  0  0  0  0  0  0  0  0  0  0
    3.3170    0.8520    1.9140 C   0  0  0  0  0  0  0  0  0  0  0  0
    2.7120   -0.0320   -2.8390 C   0  0  0  0  0  0  0  0  0  0  0  0
   -4.2510    7.1600    7.5290 C   0  0  0  0  0  0  0  0  0  0  0  0
   -0.9750   -1.8750    0.8750 H   0  0  0  0  0  0  0  0  0  0  0  0
   -0.6620    5.3430    3.5710 H   0  0  0  0  0  0  0  0  0  0  0  0
    0.2530   -0.8990   -2.0400 H   0  0  0  0  0  0  0  0  0  0  0  0
    0.8290    5.8600    5.0980 H   0  0  0  0  0  0  0  0  0  0  0  0
   -2.9650    0.4340    2.8590 H   0  0  0  0  0  0  0  0  0  0  0  0
   -0.6880    2.5660   -0.0880 H   0  0  0  0  0  0  0  0  0  0  0  0
   -2.2680    8.6670    7.7510 H   0  0  0  0  0  0  0  0  0  0  0  0
   -2.6120    2.2910    4.4720 H   0  0  0  0  0  0  0  0  0  0  0  0
   -0.3360    4.4210    1.5270 H   0  0  0  0  0  0  0  0  0  0  0  0
    0.0730    9.3820    7.4080 H   0  0  0  0  0  0  0  0  0  0  0  0
    2.7850    0.7720    2.8620 H   0  0  0  0  0  0  0  0  0  0  0  0
    3.5810    1.8940    1.7320 H   0  0  0  0  0  0  0  0  0  0  0  0
    4.2240    0.2490    1.9540 H   0  0  0  0  0  0  0  0  0  0  0  0
    3.7240    0.3730   -2.8160 H   0  0  0  0  0  0  0  0  0  0  0  0
    2.0830    0.5970   -3.4680 H   0  0  0  0  0  0  0  0  0  0  0  0
    2.7350   -1.0430   -3.2450 H   0  0  0  0  0  0  0  0  0  0  0  0
   -5.2290    6.6800    7.5360 H   0  0  0  0  0  0  0  0  0  0  0  0
   -4.3410    8.1630    7.1110 H   0  0  0  0  0  0  0  0  0  0  0  0
   -3.8700    7.2240    8.5480 H   0  0  0  0  0  0  0  0  0  0  0  0
  1  2  1  0  0  0  0
  1 10  1  0  0  0  0
  1 12  2  0  0  0  0
  1 13  2  0  0  0  0
  2  5  1  0  0  0  0
  2 31  1  0  0  0  0
  3  4  1  0  0  0  0
  3 14  2  0  0  0  0
  3 15  1  0  0  0  0
  4  9  1  0  0  0  0
  4 17  2  0  0  0  0
  5  6  1  0  0  0  0
  5 11  2  0  0  0  0
  6  7  2  0  0  0  0
  7  8  1  0  0  0  0
  7 28  1  0  0  0  0
  8 16  2  0  0  0  0
  9 21  1  0  0  0  0
  9 32  1  0  0  0  0
 10 18  2  0  0  0  0
 10 19  1  0  0  0  0
 11 16  1  0  0  0  0
 11 33  1  0  0  0  0
 14 20  1  0  0  0  0
 14 27  1  0  0  0  0
 15 22  2  0  0  0  0
 15 34  1  0  0  0  0
 16 29  1  0  0  0  0
 18 23  1  0  0  0  0
 18 35  1  0  0  0  0
 19 24  2  0  0  0  0
 19 36  1  0  0  0  0
 20 25  2  0  0  0  0
 20 37  1  0  0  0  0
 21 23  2  0  0  0  0
 21 24  1  0  0  0  0
 22 25  1  0  0  0  0
 22 26  1  0  0  0  0
 23 38  1  0  0  0  0
 24 39  1  0  0  0  0
 25 40  1  0  0  0  0
 27 30  1  0  0  0  0
 28 41  1  0  0  0  0
 28 42  1  0  0  0  0
 28 43  1  0  0  0  0
 29 44  1  0  0  0  0
 29 45  1  0  0  0  0
 29 46  1  0  0  0  0
 30 47  1  0  0  0  0
 30 48  1  0  0  0  0
 30 49  1  0  0  0  0
M  END
>  <$CLUSTER>
636

>  <INDEX>
574624

$$$$
