Chem T&I AMSACS-12929
 OpenBabel04062209303D

 42 43  0  0  0  0  0  0  0  0999 V2000
   -1.2660    1.1460   -0.4770 S   0  0  0  0  0  0  0  0  0  0  0  0
    0.0200    0.0250   -0.0150 C   0  0  0  0  0  0  0  0  0  0  0  0
   -2.6300    0.3030    0.0970 N   0  0  0  0  0  0  0  0  0  0  0  0
   -4.5020   -1.0560    3.6330 N   0  3  1  0  0  0  0  0  0  0  0  0
    0.4300   -0.9590   -0.9150 C   0  0  0  0  0  0  0  0  0  0  0  0
    1.4640   -1.8240   -0.5570 C   0  0  0  0  0  0  0  0  0  0  0  0
   -1.0970    2.3580    0.3000 O   0  0  0  0  0  0  0  0  0  0  0  0
   -1.3130    1.1930   -1.9250 O   0  0  0  0  0  0  0  0  0  0  0  0
    2.0840   -1.6990    0.6870 C   0  0  0  0  0  0  0  0  0  0  0  0
   -4.6090    0.4210    3.3350 C   0  0  0  0  0  0  0  0  0  0  0  0
   -3.1210   -1.5990    3.3500 C   0  0  0  0  0  0  0  0  0  0  0  0
    0.6380    0.1630    1.2280 C   0  0  0  0  0  0  0  0  0  0  0  0
   -2.8750    0.1230    1.5370 C   0  0  2  0  0  0  0  0  0  0  0  0
    1.6710   -0.7070    1.5770 C   0  0  0  0  0  0  0  0  0  0  0  0
   -2.7730   -1.3580    1.8800 C   0  0  0  0  0  0  0  0  0  0  0  0
   -4.2620    0.6670    1.8590 C   0  0  0  0  0  0  0  0  0  0  0  0
   -4.9450   -1.3730    5.0350 C   0  0  0  0  0  0  0  0  0  0  0  0
    1.9170   -2.7960   -1.3500 F   0  0  0  0  0  0  0  0  0  0  0  0
    3.0620   -2.5650    0.9520 F   0  0  0  0  0  0  0  0  0  0  0  0
   -5.3180   -2.8660    5.1590 C   0  0  0  0  0  0  0  0  0  0  0  0
   -3.9970   -0.9470    6.1410 C   0  0  0  0  0  0  0  0  0  0  0  0
   -2.5800   -0.6240   -0.3010 H   0  0  0  0  0  0  0  0  0  0  0  0
   -5.1350   -1.5260    3.0020 H   0  0  0  0  0  0  0  0  0  0  0  0
   -0.0480   -1.0500   -1.8790 H   0  0  0  0  0  0  0  0  0  0  0  0
   -3.9140    0.9720    3.9690 H   0  0  0  0  0  0  0  0  0  0  0  0
   -5.6260    0.7590    3.5310 H   0  0  0  0  0  0  0  0  0  0  0  0
   -3.1010   -2.6690    3.5580 H   0  0  0  0  0  0  0  0  0  0  0  0
   -2.3940   -1.0920    3.9840 H   0  0  0  0  0  0  0  0  0  0  0  0
    0.3200    0.9350    1.9130 H   0  0  0  0  0  0  0  0  0  0  0  0
   -2.1360    0.6620    2.1300 H   0  0  0  0  0  0  0  0  0  0  0  0
    2.1530   -0.6120    2.5390 H   0  0  0  0  0  0  0  0  0  0  0  0
   -3.4650   -1.9190    1.2520 H   0  0  0  0  0  0  0  0  0  0  0  0
   -1.7550   -1.6990    1.6930 H   0  0  0  0  0  0  0  0  0  0  0  0
   -4.2820    1.7380    1.6600 H   0  0  0  0  0  0  0  0  0  0  0  0
   -4.9980    0.1670    1.2300 H   0  0  0  0  0  0  0  0  0  0  0  0
   -5.8270   -0.7540    5.1950 H   0  0  0  0  0  0  0  0  0  0  0  0
   -4.4300   -3.4770    4.9970 H   0  0  0  0  0  0  0  0  0  0  0  0
   -6.0720   -3.1150    4.4120 H   0  0  0  0  0  0  0  0  0  0  0  0
   -5.7160   -3.0600    6.1550 H   0  0  0  0  0  0  0  0  0  0  0  0
   -3.0710   -1.5170    6.0660 H   0  0  0  0  0  0  0  0  0  0  0  0
   -4.4610   -1.1340    7.1090 H   0  0  0  0  0  0  0  0  0  0  0  0
   -3.7780    0.1160    6.0420 H   0  0  0  0  0  0  0  0  0  0  0  0
  1  2  1  0  0  0  0
  1  3  1  0  0  0  0
  1  7  2  0  0  0  0
  1  8  2  0  0  0  0
  2  5  1  0  0  0  0
  2 12  2  0  0  0  0
  3 13  1  0  0  0  0
  3 22  1  0  0  0  0
  4 10  1  0  0  0  0
  4 11  1  0  0  0  0
  4 17  1  0  0  0  0
  4 23  1  6  0  0  0
  5  6  2  0  0  0  0
  5 24  1  0  0  0  0
  6  9  1  0  0  0  0
  6 18  1  0  0  0  0
  9 14  2  0  0  0  0
  9 19  1  0  0  0  0
 10 16  1  0  0  0  0
 10 25  1  0  0  0  0
 10 26  1  0  0  0  0
 11 15  1  0  0  0  0
 11 27  1  0  0  0  0
 11 28  1  0  0  0  0
 12 14  1  0  0  0  0
 12 29  1  0  0  0  0
 13 15  1  0  0  0  0
 13 16  1  0  0  0  0
 13 30  1  1  0  0  0
 14 31  1  0  0  0  0
 15 32  1  0  0  0  0
 15 33  1  0  0  0  0
 16 34  1  0  0  0  0
 16 35  1  0  0  0  0
 17 20  1  0  0  0  0
 17 21  1  0  0  0  0
 17 36  1  0  0  0  0
 20 37  1  0  0  0  0
 20 38  1  0  0  0  0
 20 39  1  0  0  0  0
 21 40  1  0  0  0  0
 21 41  1  0  0  0  0
 21 42  1  0  0  0  0
M  CHG  1   4   1
M  END
>  <$CLUSTER>
792

>  <INDEX>
519041

$$$$
