Life Chemicals F0396-0052
 OpenBabel04062209303D

 46 49  0  0  0  0  0  0  0  0999 V2000
    0.9100    0.0670    0.2250 C   0  0  0  0  0  0  0  0  0  0  0  0
   -0.0990   -0.3270   -0.6770 N   0  0  0  0  0  0  0  0  0  0  0  0
    0.4240   -0.9910   -1.7530 N   0  0  0  0  0  0  0  0  0  0  0  0
    2.0460   -0.5880   -0.2020 C   0  0  0  0  0  0  0  0  0  0  0  0
    0.6790    0.9830    1.2390 N   0  0  0  0  0  0  0  0  0  0  0  0
    1.6850   -1.1980   -1.4080 C   0  0  0  0  0  0  0  0  0  0  0  0
    1.5840    1.3030    2.2380 C   0  0  0  0  0  0  0  0  0  0  0  0
   -1.5120   -0.1500   -0.6080 C   0  0  0  0  0  0  0  0  0  0  0  0
    4.2420   -1.7180   -1.1610 S   0  0  0  0  0  0  0  0  0  0  0  0
    1.0360    2.3780    3.1440 C   0  0  0  0  0  0  0  0  0  0  0  0
    2.6860    0.8090    2.4490 O   0  0  0  0  0  0  0  0  0  0  0  0
    3.4610   -0.7100    0.1940 C   0  0  0  0  0  0  0  0  0  0  0  0
    2.7060   -1.9220   -2.1790 C   0  0  0  0  0  0  0  0  0  0  0  0
   -2.2680   -0.2110   -1.7900 C   0  0  0  0  0  0  0  0  0  0  0  0
   -2.1720    0.0220    0.6140 C   0  0  0  0  0  0  0  0  0  0  0  0
    2.0100    3.1510    3.8510 C   0  0  0  0  0  0  0  0  0  0  0  0
   -0.2990    2.6170    3.3670 C   0  0  0  0  0  0  0  0  0  0  0  0
   -4.3020    0.1400   -0.5320 C   0  0  0  0  0  0  0  0  0  0  0  0
    0.2360    4.3970    4.9170 C   0  0  0  0  0  0  0  0  0  0  0  0
   -3.5610    0.1730    0.6480 C   0  0  0  0  0  0  0  0  0  0  0  0
    1.5950    4.1590    4.7230 C   0  0  0  0  0  0  0  0  0  0  0  0
   -0.7090    3.6260    4.2420 C   0  0  0  0  0  0  0  0  0  0  0  0
   -3.6550   -0.0570   -1.7490 C   0  0  0  0  0  0  0  0  0  0  0  0
   -5.6680    0.2650   -0.6210 O   0  0  0  0  0  0  0  0  0  0  0  0
   -0.0430    5.4090    5.8070 O   0  0  0  0  0  0  0  0  0  0  0  0
   -6.3780    0.4610    0.5970 C   0  0  0  0  0  0  0  0  0  0  0  0
   -1.4160    5.6950    6.0490 C   0  0  0  0  0  0  0  0  0  0  0  0
   -0.2150    1.4520    1.2510 H   0  0  0  0  0  0  0  0  0  0  0  0
    3.5500   -1.2200    1.1530 H   0  0  0  0  0  0  0  0  0  0  0  0
    3.9280    0.2730    0.2610 H   0  0  0  0  0  0  0  0  0  0  0  0
    2.8330   -1.4810   -3.1680 H   0  0  0  0  0  0  0  0  0  0  0  0
    2.4430   -2.9750   -2.2810 H   0  0  0  0  0  0  0  0  0  0  0  0
   -1.7740   -0.3780   -2.7360 H   0  0  0  0  0  0  0  0  0  0  0  0
   -1.6060    0.0380    1.5340 H   0  0  0  0  0  0  0  0  0  0  0  0
    3.0630    2.9550    3.7110 H   0  0  0  0  0  0  0  0  0  0  0  0
   -1.0400    2.0170    2.8600 H   0  0  0  0  0  0  0  0  0  0  0  0
   -4.0630    0.3160    1.5940 H   0  0  0  0  0  0  0  0  0  0  0  0
    2.3280    4.7550    5.2470 H   0  0  0  0  0  0  0  0  0  0  0  0
   -1.7620    3.8090    4.3960 H   0  0  0  0  0  0  0  0  0  0  0  0
   -4.2280   -0.0910   -2.6640 H   0  0  0  0  0  0  0  0  0  0  0  0
   -7.4440    0.5440    0.3870 H   0  0  0  0  0  0  0  0  0  0  0  0
   -6.0300    1.3760    1.0770 H   0  0  0  0  0  0  0  0  0  0  0  0
   -6.2030   -0.3860    1.2600 H   0  0  0  0  0  0  0  0  0  0  0  0
   -1.4960    6.5110    6.7670 H   0  0  0  0  0  0  0  0  0  0  0  0
   -1.9070    4.8080    6.4500 H   0  0  0  0  0  0  0  0  0  0  0  0
   -1.8970    5.9850    5.1150 H   0  0  0  0  0  0  0  0  0  0  0  0
  1  2  1  0  0  0  0
  1  4  2  0  0  0  0
  1  5  1  0  0  0  0
  2  3  1  0  0  0  0
  2  8  1  0  0  0  0
  3  6  2  0  0  0  0
  4  6  1  0  0  0  0
  4 12  1  0  0  0  0
  5  7  1  0  0  0  0
  5 28  1  0  0  0  0
  6 13  1  0  0  0  0
  7 10  1  0  0  0  0
  7 11  2  0  0  0  0
  8 14  1  0  0  0  0
  8 15  2  0  0  0  0
  9 12  1  0  0  0  0
  9 13  1  0  0  0  0
 10 16  2  0  0  0  0
 10 17  1  0  0  0  0
 12 29  1  0  0  0  0
 12 30  1  0  0  0  0
 13 31  1  0  0  0  0
 13 32  1  0  0  0  0
 14 23  2  0  0  0  0
 14 33  1  0  0  0  0
 15 20  1  0  0  0  0
 15 34  1  0  0  0  0
 16 21  1  0  0  0  0
 16 35  1  0  0  0  0
 17 22  2  0  0  0  0
 17 36  1  0  0  0  0
 18 20  2  0  0  0  0
 18 23  1  0  0  0  0
 18 24  1  0  0  0  0
 19 21  2  0  0  0  0
 19 22  1  0  0  0  0
 19 25  1  0  0  0  0
 20 37  1  0  0  0  0
 21 38  1  0  0  0  0
 22 39  1  0  0  0  0
 23 40  1  0  0  0  0
 24 26  1  0  0  0  0
 25 27  1  0  0  0  0
 26 41  1  0  0  0  0
 26 42  1  0  0  0  0
 26 43  1  0  0  0  0
 27 44  1  0  0  0  0
 27 45  1  0  0  0  0
 27 46  1  0  0  0  0
M  END
>  <$CLUSTER>
411

>  <INDEX>
269861

$$$$
