Chem T&I AMSACS-08712
 OpenBabel04062209303D

 40 42  0  0  0  0  0  0  0  0999 V2000
   -0.3670    0.1270    0.2380 C   0  0  0  0  0  0  0  0  0  0  0  0
   -1.1650   -0.7570    1.5370 S   0  0  0  0  0  0  0  0  0  0  0  0
    0.6070   -0.4650   -0.6080 C   0  0  0  0  0  0  0  0  0  0  0  0
    4.1780   -4.4980    4.4020 N   0  0  0  0  0  0  0  0  0  0  0  0
    4.3520   -3.5150    3.4960 N   0  0  0  0  0  0  0  0  0  0  0  0
    1.0620   -1.7280   -0.5670 N   0  0  0  0  0  0  0  0  0  0  0  0
    2.1840   -1.8760   -1.7800 S   0  0  0  0  0  0  0  0  0  0  0  0
    1.2530    0.3500   -1.7060 C   0  0  0  0  0  0  0  0  0  0  0  0
    5.5430   -2.8460    3.6300 C   0  0  0  0  0  0  0  0  0  0  0  0
    6.1690   -3.4310    4.7100 C   0  0  0  0  0  0  0  0  0  0  0  0
    2.1520   -0.3450   -2.4200 N   0  0  0  0  0  0  0  0  0  0  0  0
    5.2860   -4.4360    5.1420 C   0  0  0  0  0  0  0  0  0  0  0  0
   -0.6830    1.4750   -0.0070 C   0  0  0  0  0  0  0  0  0  0  0  0
   -1.9760    0.1810    2.2880 O   0  0  0  0  0  0  0  0  0  0  0  0
   -1.7480   -1.9410    0.9400 O   0  0  0  0  0  0  0  0  0  0  0  0
    0.1680   -1.1970    2.5020 N   0  0  0  0  0  0  0  0  0  0  0  0
   -0.0720    2.2280   -1.0370 C   0  0  0  0  0  0  0  0  0  0  0  0
    0.9000    1.7060   -1.9080 C   0  0  0  0  0  0  0  0  0  0  0  0
    3.3240   -3.3100    2.4750 C   0  0  0  0  0  0  0  0  0  0  0  0
    5.9750   -1.7290    2.7560 C   0  0  0  0  0  0  0  0  0  0  0  0
    2.2490   -2.3480    3.0000 C   0  0  0  0  0  0  0  0  0  0  0  0
    5.5130   -5.3280    6.2600 C   0  0  0  0  0  0  0  0  0  0  0  0
    1.1720   -2.1330    1.9580 C   0  0  0  0  0  0  0  0  0  0  0  0
    7.1290   -3.1730    5.1320 H   0  0  0  0  0  0  0  0  0  0  0  0
   -1.4220    1.9550    0.6170 H   0  0  0  0  0  0  0  0  0  0  0  0
   -0.2020   -1.6170    3.3430 H   0  0  0  0  0  0  0  0  0  0  0  0
   -0.3680    3.2590   -1.1610 H   0  0  0  0  0  0  0  0  0  0  0  0
    1.3510    2.3040   -2.6860 H   0  0  0  0  0  0  0  0  0  0  0  0
    2.8630   -4.2670    2.2290 H   0  0  0  0  0  0  0  0  0  0  0  0
    3.7820   -2.8870    1.5810 H   0  0  0  0  0  0  0  0  0  0  0  0
    5.2120   -1.5430    2.0000 H   0  0  0  0  0  0  0  0  0  0  0  0
    6.9130   -1.9920    2.2680 H   0  0  0  0  0  0  0  0  0  0  0  0
    6.1180   -0.8310    3.3570 H   0  0  0  0  0  0  0  0  0  0  0  0
    2.7110   -1.3910    3.2400 H   0  0  0  0  0  0  0  0  0  0  0  0
    1.7990   -2.7700    3.8990 H   0  0  0  0  0  0  0  0  0  0  0  0
    4.6640   -6.0030    6.3640 H   0  0  0  0  0  0  0  0  0  0  0  0
    5.6270   -4.7440    7.1730 H   0  0  0  0  0  0  0  0  0  0  0  0
    6.4190   -5.9080    6.0840 H   0  0  0  0  0  0  0  0  0  0  0  0
    1.6140   -1.7130    1.0550 H   0  0  0  0  0  0  0  0  0  0  0  0
    0.6960   -3.0840    1.7210 H   0  0  0  0  0  0  0  0  0  0  0  0
  1  2  1  0  0  0  0
  1  3  1  0  0  0  0
  1 13  2  0  0  0  0
  2 14  2  0  0  0  0
  2 15  2  0  0  0  0
  2 16  1  0  0  0  0
  3  6  2  0  0  0  0
  3  8  1  0  0  0  0
  4  5  1  0  0  0  0
  4 12  2  0  0  0  0
  5  9  1  0  0  0  0
  5 19  1  0  0  0  0
  6  7  1  0  0  0  0
  7 11  1  0  0  0  0
  8 11  2  0  0  0  0
  8 18  1  0  0  0  0
  9 10  2  0  0  0  0
  9 20  1  0  0  0  0
 10 12  1  0  0  0  0
 10 24  1  0  0  0  0
 12 22  1  0  0  0  0
 13 17  1  0  0  0  0
 13 25  1  0  0  0  0
 16 23  1  0  0  0  0
 16 26  1  0  0  0  0
 17 18  2  0  0  0  0
 17 27  1  0  0  0  0
 18 28  1  0  0  0  0
 19 21  1  0  0  0  0
 19 29  1  0  0  0  0
 19 30  1  0  0  0  0
 20 31  1  0  0  0  0
 20 32  1  0  0  0  0
 20 33  1  0  0  0  0
 21 23  1  0  0  0  0
 21 34  1  0  0  0  0
 21 35  1  0  0  0  0
 22 36  1  0  0  0  0
 22 37  1  0  0  0  0
 22 38  1  0  0  0  0
 23 39  1  0  0  0  0
 23 40  1  0  0  0  0
M  END
>  <$CLUSTER>
788

>  <INDEX>
516346

$$$$
