Life Chemicals F0560-0107
 OpenBabel04062209303D

 47 50  0  0  1  0  0  0  0  0999 V2000
    0.6230    0.8470   -0.6380 N   0  0  0  0  0  0  0  0  0  0  0  0
   -0.1600   -0.4590    1.2900 C   0  0  0  0  0  0  0  0  0  0  0  0
    0.1490   -0.4620   -0.1920 C   0  0  2  0  0  0  0  0  0  0  0  0
   -0.1730    1.8380   -1.2010 C   0  0  0  0  0  0  0  0  0  0  0  0
    0.5270    0.2770    2.2730 C   0  0  0  0  0  0  0  0  0  0  0  0
    1.6250    1.1350    2.0940 N   0  0  0  0  0  0  0  0  0  0  0  0
    2.3430    1.5770    1.0250 C   0  0  0  0  0  0  0  0  0  0  0  0
    2.0280    1.1500   -0.3990 C   0  0  0  0  0  0  0  0  0  0  0  0
   -1.2300   -1.2940    1.7020 C   0  0  0  0  0  0  0  0  0  0  0  0
    1.0180   -1.6160   -0.6830 C   0  0  0  0  0  0  0  0  0  0  0  0
    0.2420    2.9300   -1.5810 O   0  0  0  0  0  0  0  0  0  0  0  0
   -1.6120    1.5850   -1.3580 C   0  0  0  0  0  0  0  0  0  0  0  0
    3.3490    2.2600    1.2390 O   0  0  0  0  0  0  0  0  0  0  0  0
    0.1120    0.1610    3.6190 C   0  0  0  0  0  0  0  0  0  0  0  0
    1.8900   -2.3400    0.1560 C   0  0  0  0  0  0  0  0  0  0  0  0
    0.9760   -1.9680   -2.0470 C   0  0  0  0  0  0  0  0  0  0  0  0
   -1.6220   -1.3900    3.0330 C   0  0  0  0  0  0  0  0  0  0  0  0
    2.6120   -3.7100   -1.7000 C   0  0  0  0  0  0  0  0  0  0  0  0
   -0.9490   -0.6580    3.9960 C   0  0  0  0  0  0  0  0  0  0  0  0
    2.6760   -3.3770   -0.3500 C   0  0  0  0  0  0  0  0  0  0  0  0
    1.7630   -3.0050   -2.5490 C   0  0  0  0  0  0  0  0  0  0  0  0
    3.3940   -4.7140   -2.0990 F   0  0  0  0  0  0  0  0  0  0  0  0
   -2.1040    1.2280   -2.6140 C   0  0  0  0  0  0  0  0  0  0  0  0
   -2.4620    1.7270   -0.2620 C   0  0  0  0  0  0  0  0  0  0  0  0
   -2.7600   -2.2780    3.4140 C   0  0  0  0  0  0  0  0  0  0  0  0
   -3.4690    0.9830   -2.7650 C   0  0  0  0  0  0  0  0  0  0  0  0
   -3.8260    1.4790   -0.4210 C   0  0  0  0  0  0  0  0  0  0  0  0
   -4.3270    1.1050   -1.6700 C   0  0  0  0  0  0  0  0  0  0  0  0
   -0.8060   -0.6570   -0.6800 H   0  0  0  0  0  0  0  0  0  0  0  0
    1.9620    1.5150    2.9670 H   0  0  0  0  0  0  0  0  0  0  0  0
    2.3220    1.9570   -1.0700 H   0  0  0  0  0  0  0  0  0  0  0  0
    2.6130    0.2580   -0.6250 H   0  0  0  0  0  0  0  0  0  0  0  0
   -1.7570   -1.8740    0.9590 H   0  0  0  0  0  0  0  0  0  0  0  0
    0.6340    0.7250    4.3780 H   0  0  0  0  0  0  0  0  0  0  0  0
    1.9510   -2.0890    1.2050 H   0  0  0  0  0  0  0  0  0  0  0  0
    0.3230   -1.4260   -2.7150 H   0  0  0  0  0  0  0  0  0  0  0  0
   -1.2450   -0.7220    5.0330 H   0  0  0  0  0  0  0  0  0  0  0  0
    3.3360   -3.9230    0.3080 H   0  0  0  0  0  0  0  0  0  0  0  0
    1.7140   -3.2610   -3.5970 H   0  0  0  0  0  0  0  0  0  0  0  0
   -1.4360    1.1420   -3.4590 H   0  0  0  0  0  0  0  0  0  0  0  0
   -2.0690    2.0250    0.6990 H   0  0  0  0  0  0  0  0  0  0  0  0
   -3.1550   -2.7650    2.5220 H   0  0  0  0  0  0  0  0  0  0  0  0
   -3.5450   -1.6830    3.8810 H   0  0  0  0  0  0  0  0  0  0  0  0
   -2.4110   -3.0350    4.1170 H   0  0  0  0  0  0  0  0  0  0  0  0
   -3.8630    0.6990   -3.7300 H   0  0  0  0  0  0  0  0  0  0  0  0
   -4.4940    1.5760    0.4220 H   0  0  0  0  0  0  0  0  0  0  0  0
   -5.3820    0.9090   -1.7890 H   0  0  0  0  0  0  0  0  0  0  0  0
  1  3  1  0  0  0  0
  1  4  1  0  0  0  0
  1  8  1  0  0  0  0
  2  3  1  0  0  0  0
  2  5  2  0  0  0  0
  2  9  1  0  0  0  0
  3 10  1  0  0  0  0
  3 29  1  6  0  0  0
  4 11  2  0  0  0  0
  4 12  1  0  0  0  0
  5  6  1  0  0  0  0
  5 14  1  0  0  0  0
  6  7  1  0  0  0  0
  6 30  1  0  0  0  0
  7  8  1  0  0  0  0
  7 13  2  0  0  0  0
  8 31  1  0  0  0  0
  8 32  1  0  0  0  0
  9 17  2  0  0  0  0
  9 33  1  0  0  0  0
 10 15  2  0  0  0  0
 10 16  1  0  0  0  0
 12 23  2  0  0  0  0
 12 24  1  0  0  0  0
 14 19  2  0  0  0  0
 14 34  1  0  0  0  0
 15 20  1  0  0  0  0
 15 35  1  0  0  0  0
 16 21  2  0  0  0  0
 16 36  1  0  0  0  0
 17 19  1  0  0  0  0
 17 25  1  0  0  0  0
 18 20  2  0  0  0  0
 18 21  1  0  0  0  0
 18 22  1  0  0  0  0
 19 37  1  0  0  0  0
 20 38  1  0  0  0  0
 21 39  1  0  0  0  0
 23 26  1  0  0  0  0
 23 40  1  0  0  0  0
 24 27  2  0  0  0  0
 24 41  1  0  0  0  0
 25 42  1  0  0  0  0
 25 43  1  0  0  0  0
 25 44  1  0  0  0  0
 26 28  2  0  0  0  0
 26 45  1  0  0  0  0
 27 28  1  0  0  0  0
 27 46  1  0  0  0  0
 28 47  1  0  0  0  0
M  END
>  <$CLUSTER>
415

>  <INDEX>
274004

$$$$
