Chemdiv 8005-4355
 OpenBabel04062209303D

 46 48  0  0  0  0  0  0  0  0999 V2000
   -0.9480    4.9760   -7.3100 C   0  0  0  0  0  0  0  0  0  0  0  0
   -0.5790    0.1450    0.1350 N   0  0  0  0  0  0  0  0  0  0  0  0
   -1.4740    1.5620   -1.5690 C   0  0  0  0  0  0  0  0  0  0  0  0
   -0.3260    0.8830   -0.9750 N   0  0  0  0  0  0  0  0  0  0  0  0
   -0.1410    4.6070   -6.2410 N   0  0  0  0  0  0  0  0  0  0  0  0
    0.4150   -0.5610    0.5970 C   0  0  0  0  0  0  0  0  0  0  0  0
   -1.0380    2.3480   -2.8040 C   0  0  0  0  0  0  0  0  0  0  0  0
    0.1590   -1.4260    1.8090 C   0  0  0  0  0  0  0  0  0  0  0  0
   -2.1330    4.7170   -7.4860 O   0  0  0  0  0  0  0  0  0  0  0  0
   -0.1760    5.7900   -8.3200 C   0  0  0  0  0  0  0  0  0  0  0  0
   -2.6120    1.5400   -1.1870 O   0  0  0  0  0  0  0  0  0  0  0  0
   -0.5080    3.8330   -5.0970 C   0  0  0  0  0  0  0  0  0  0  0  0
   -2.0730    2.5900   -3.7380 C   0  0  0  0  0  0  0  0  0  0  0  0
    0.2140    2.8610   -3.0010 C   0  0  0  0  0  0  0  0  0  0  0  0
   -1.1580   -1.6260    2.2450 C   0  0  0  0  0  0  0  0  0  0  0  0
    1.2100   -2.0170    2.5250 C   0  0  0  0  0  0  0  0  0  0  0  0
   -0.3750   -3.0040    4.0670 C   0  0  0  0  0  0  0  0  0  0  0  0
    0.4920    3.6020   -4.1540 C   0  0  0  0  0  0  0  0  0  0  0  0
   -1.7900    3.3290   -4.8880 C   0  0  0  0  0  0  0  0  0  0  0  0
    0.9400   -2.8060    3.6490 C   0  0  0  0  0  0  0  0  0  0  0  0
   -1.4250   -2.4140    3.3670 C   0  0  0  0  0  0  0  0  0  0  0  0
   -0.7460   -4.0490    5.5490 Br  0  0  0  0  0  0  0  0  0  0  0  0
    1.8060   -0.6030    0.0040 C   0  0  0  0  0  0  0  0  0  0  0  0
   -0.6880    5.7760   -9.6530 C   0  0  0  0  0  0  0  0  0  0  0  0
    0.9150    6.5730   -8.0270 C   0  0  0  0  0  0  0  0  0  0  0  0
   -0.0500    6.5210  -10.6470 C   0  0  0  0  0  0  0  0  0  0  0  0
    1.5490    7.3180   -9.0250 C   0  0  0  0  0  0  0  0  0  0  0  0
    1.0690    7.2900  -10.3330 C   0  0  0  0  0  0  0  0  0  0  0  0
    0.6020    0.9580   -1.3670 H   0  0  0  0  0  0  0  0  0  0  0  0
    0.8180    4.9230   -6.2770 H   0  0  0  0  0  0  0  0  0  0  0  0
   -3.0680    2.2080   -3.5640 H   0  0  0  0  0  0  0  0  0  0  0  0
    0.9880    2.6940   -2.2660 H   0  0  0  0  0  0  0  0  0  0  0  0
   -1.9750   -1.1660    1.7080 H   0  0  0  0  0  0  0  0  0  0  0  0
    2.2310   -1.8630    2.2080 H   0  0  0  0  0  0  0  0  0  0  0  0
    1.4850    3.9960   -4.3140 H   0  0  0  0  0  0  0  0  0  0  0  0
   -2.5660    3.5100   -5.6170 H   0  0  0  0  0  0  0  0  0  0  0  0
    1.7530   -3.2630    4.1940 H   0  0  0  0  0  0  0  0  0  0  0  0
   -2.4440   -2.5660    3.6910 H   0  0  0  0  0  0  0  0  0  0  0  0
    2.4320   -1.2740    0.5920 H   0  0  0  0  0  0  0  0  0  0  0  0
    2.2360    0.3980    0.0160 H   0  0  0  0  0  0  0  0  0  0  0  0
    1.7520   -0.9630   -1.0230 H   0  0  0  0  0  0  0  0  0  0  0  0
   -1.5650    5.1920   -9.8910 H   0  0  0  0  0  0  0  0  0  0  0  0
    1.2870    6.6130   -7.0140 H   0  0  0  0  0  0  0  0  0  0  0  0
   -0.4240    6.5010  -11.6600 H   0  0  0  0  0  0  0  0  0  0  0  0
    2.4140    7.9170   -8.7820 H   0  0  0  0  0  0  0  0  0  0  0  0
    1.5640    7.8640  -11.1030 H   0  0  0  0  0  0  0  0  0  0  0  0
  1  5  1  0  0  0  0
  1  9  2  0  0  0  0
  1 10  1  0  0  0  0
  2  4  1  0  0  0  0
  2  6  2  0  0  0  0
  3  4  1  0  0  0  0
  3  7  1  0  0  0  0
  3 11  2  0  0  0  0
  4 29  1  0  0  0  0
  5 12  1  0  0  0  0
  5 30  1  0  0  0  0
  6  8  1  0  0  0  0
  6 23  1  0  0  0  0
  7 13  1  0  0  0  0
  7 14  2  0  0  0  0
  8 15  1  0  0  0  0
  8 16  2  0  0  0  0
 10 24  2  0  0  0  0
 10 25  1  0  0  0  0
 12 18  2  0  0  0  0
 12 19  1  0  0  0  0
 13 19  2  0  0  0  0
 13 31  1  0  0  0  0
 14 18  1  0  0  0  0
 14 32  1  0  0  0  0
 15 21  2  0  0  0  0
 15 33  1  0  0  0  0
 16 20  1  0  0  0  0
 16 34  1  0  0  0  0
 17 20  2  0  0  0  0
 17 21  1  0  0  0  0
 17 22  1  0  0  0  0
 18 35  1  0  0  0  0
 19 36  1  0  0  0  0
 20 37  1  0  0  0  0
 21 38  1  0  0  0  0
 23 39  1  0  0  0  0
 23 40  1  0  0  0  0
 23 41  1  0  0  0  0
 24 26  1  0  0  0  0
 24 42  1  0  0  0  0
 25 27  2  0  0  0  0
 25 43  1  0  0  0  0
 26 28  2  0  0  0  0
 26 44  1  0  0  0  0
 27 28  1  0  0  0  0
 27 45  1  0  0  0  0
 28 46  1  0  0  0  0
M  END
>  <$CLUSTER>
829

>  <INDEX>
104583

$$$$
