InterBioScreen STOCK5S-70232
 OpenBabel04062209303D

 51 54  0  0  1  0  0  0  0  0999 V2000
   -1.4110    0.0410   -0.1400 C   0  0  0  0  0  0  0  0  0  0  0  0
   -0.2860    3.9420   -1.6230 S   0  0  0  0  0  0  0  0  0  0  0  0
   -0.0400    0.2710   -0.2950 N   0  0  0  0  0  0  0  0  0  0  0  0
    0.3100    1.3820   -1.1950 C   0  0  1  0  0  0  0  0  0  0  0  0
   -0.7920    1.4190   -2.2660 C   0  0  1  0  0  0  0  0  0  0  0  0
   -1.9900   -0.6990    0.7430 N   0  0  0  0  0  0  0  0  0  0  0  0
   -2.3140    0.9830   -1.3630 S   0  0  0  0  0  0  0  0  0  0  0  0
    0.2910    2.7280   -0.4520 C   0  0  0  0  0  0  0  0  0  0  0  0
   -0.8090    2.8040   -2.8920 C   0  0  0  0  0  0  0  0  0  0  0  0
   -3.4360   -0.8330    0.7870 C   0  0  0  0  0  0  0  0  0  0  0  0
    0.9930   -0.4630    0.3310 C   0  0  0  0  0  0  0  0  0  0  0  0
   -1.4560    4.5950   -1.0730 O   0  0  0  0  0  0  0  0  0  0  0  0
    0.8530    4.6880   -2.1160 O   0  0  0  0  0  0  0  0  0  0  0  0
   -4.1170   -0.2280   -0.0360 O   0  0  0  0  0  0  0  0  0  0  0  0
    2.2660    0.0900    0.5710 C   0  0  0  0  0  0  0  0  0  0  0  0
    0.8050   -1.7990    0.7370 C   0  0  0  0  0  0  0  0  0  0  0  0
   -3.9150   -1.7020    1.8410 C   0  0  0  0  0  0  0  0  0  0  0  0
    3.0620   -1.9530    1.5900 C   0  0  0  0  0  0  0  0  0  0  0  0
    1.8220   -2.5330    1.3590 C   0  0  0  0  0  0  0  0  0  0  0  0
    3.2850   -0.6410    1.1940 C   0  0  0  0  0  0  0  0  0  0  0  0
   -5.4250   -1.8240    1.8670 C   0  0  0  0  0  0  0  0  0  0  0  0
   -5.9370   -2.7410    2.9780 C   0  0  0  0  0  0  0  0  0  0  0  0
    4.1310   -2.5630    2.1820 O   0  0  0  0  0  0  0  0  0  0  0  0
   -6.1990   -2.2210    4.2450 C   0  0  0  0  0  0  0  0  0  0  0  0
   -6.0720   -4.1080    2.7460 C   0  0  0  0  0  0  0  0  0  0  0  0
    3.9510   -3.9110    2.6030 C   0  0  0  0  0  0  0  0  0  0  0  0
   -6.5040   -4.9500    3.7710 C   0  0  0  0  0  0  0  0  0  0  0  0
   -6.6300   -3.0640    5.2690 C   0  0  0  0  0  0  0  0  0  0  0  0
   -6.7840   -4.4280    5.0310 C   0  0  0  0  0  0  0  0  0  0  0  0
    1.3080    1.2330   -1.6060 H   0  0  0  0  0  0  0  0  0  0  0  0
   -0.6540    0.7280   -3.0980 H   0  0  0  0  0  0  0  0  0  0  0  0
   -0.3840    2.6770    0.4020 H   0  0  0  0  0  0  0  0  0  0  0  0
    1.2930    2.9830   -0.1080 H   0  0  0  0  0  0  0  0  0  0  0  0
   -0.1230    2.8430   -3.7380 H   0  0  0  0  0  0  0  0  0  0  0  0
   -1.8160    3.0520   -3.2290 H   0  0  0  0  0  0  0  0  0  0  0  0
    2.4620    1.1070    0.2660 H   0  0  0  0  0  0  0  0  0  0  0  0
   -0.1510   -2.2700    0.5630 H   0  0  0  0  0  0  0  0  0  0  0  0
   -3.5820   -1.3020    2.7990 H   0  0  0  0  0  0  0  0  0  0  0  0
   -3.4890   -2.6940    1.6940 H   0  0  0  0  0  0  0  0  0  0  0  0
    1.6410   -3.5540    1.6600 H   0  0  0  0  0  0  0  0  0  0  0  0
    4.2480   -0.1830    1.3670 H   0  0  0  0  0  0  0  0  0  0  0  0
   -5.7570   -2.2230    0.9080 H   0  0  0  0  0  0  0  0  0  0  0  0
   -5.8500   -0.8310    2.0140 H   0  0  0  0  0  0  0  0  0  0  0  0
   -6.0680   -1.1660    4.4330 H   0  0  0  0  0  0  0  0  0  0  0  0
   -5.8420   -4.5160    1.7730 H   0  0  0  0  0  0  0  0  0  0  0  0
    4.8730   -4.2760    3.0560 H   0  0  0  0  0  0  0  0  0  0  0  0
    3.6990   -4.5300    1.7420 H   0  0  0  0  0  0  0  0  0  0  0  0
    3.1430   -3.9590    3.3340 H   0  0  0  0  0  0  0  0  0  0  0  0
   -6.6210   -6.0080    3.5870 H   0  0  0  0  0  0  0  0  0  0  0  0
   -6.8440   -2.6590    6.2470 H   0  0  0  0  0  0  0  0  0  0  0  0
   -7.1200   -5.0800    5.8230 H   0  0  0  0  0  0  0  0  0  0  0  0
  1  3  1  0  0  0  0
  1  6  2  0  0  0  0
  1  7  1  0  0  0  0
  2  8  1  0  0  0  0
  2  9  1  0  0  0  0
  2 12  2  0  0  0  0
  2 13  2  0  0  0  0
  3  4  1  0  0  0  0
  3 11  1  0  0  0  0
  4  5  1  6  0  0  0
  4  8  1  0  0  0  0
  4 30  1  0  0  0  0
  5  7  1  0  0  0  0
  5  9  1  0  0  0  0
  5 31  1  6  0  0  0
  6 10  1  0  0  0  0
  8 32  1  0  0  0  0
  8 33  1  0  0  0  0
  9 34  1  0  0  0  0
  9 35  1  0  0  0  0
 10 14  2  0  0  0  0
 10 17  1  0  0  0  0
 11 15  1  0  0  0  0
 11 16  2  0  0  0  0
 15 20  2  0  0  0  0
 15 36  1  0  0  0  0
 16 19  1  0  0  0  0
 16 37  1  0  0  0  0
 17 21  1  0  0  0  0
 17 38  1  0  0  0  0
 17 39  1  0  0  0  0
 18 19  2  0  0  0  0
 18 20  1  0  0  0  0
 18 23  1  0  0  0  0
 19 40  1  0  0  0  0
 20 41  1  0  0  0  0
 21 22  1  0  0  0  0
 21 42  1  0  0  0  0
 21 43  1  0  0  0  0
 22 24  1  0  0  0  0
 22 25  2  0  0  0  0
 23 26  1  0  0  0  0
 24 28  2  0  0  0  0
 24 44  1  0  0  0  0
 25 27  1  0  0  0  0
 25 45  1  0  0  0  0
 26 46  1  0  0  0  0
 26 47  1  0  0  0  0
 26 48  1  0  0  0  0
 27 29  2  0  0  0  0
 27 49  1  0  0  0  0
 28 29  1  0  0  0  0
 28 50  1  0  0  0  0
 29 51  1  0  0  0  0
M  END
>  <$CLUSTER>
445

>  <INDEX>
385472

$$$$
