Chemical Block A3692/0156694
 OpenBabel04062209303D

 41 43  0  0  0  0  0  0  0  0999 V2000
   -0.4870    0.3480   -1.6950 C   0  0  0  0  0  0  0  0  0  0  0  0
   -1.3510    1.1750   -1.0910 N   0  0  0  0  0  0  0  0  0  0  0  0
    0.3470   -0.5160   -1.0950 N   0  0  0  0  0  0  0  0  0  0  0  0
   -0.5520    0.2660    0.9770 N   0  0  0  0  0  0  0  0  0  0  0  0
   -1.3290    1.0810    0.2450 C   0  0  0  0  0  0  0  0  0  0  0  0
    8.0790    1.6320    2.8230 N   0  0  0  0  0  0  0  0  0  0  0  0
    0.2670   -0.5180    0.2500 C   0  0  0  0  0  0  0  0  0  0  0  0
    9.5450    3.2860    2.8350 N   0  0  0  0  0  0  0  0  0  0  0  0
   10.1070    2.2150    3.4800 N   0  0  0  0  0  0  0  0  0  0  0  0
    3.3550   -1.4600    1.9420 C   0  0  0  0  0  0  0  0  0  0  0  0
    9.2280    1.2390    3.4670 C   0  0  0  0  0  0  0  0  0  0  0  0
    8.3410    2.9290    2.4490 C   0  0  0  0  0  0  0  0  0  0  0  0
   -0.4240    0.3640   -3.1020 N   0  0  0  0  0  0  0  0  0  0  0  0
    6.8890    0.8700    2.5950 C   0  0  0  0  0  0  0  0  0  0  0  0
    4.5710   -0.6080    2.1480 C   0  0  0  0  0  0  0  0  0  0  0  0
    2.3990   -0.7530    1.2630 O   0  0  0  0  0  0  0  0  0  0  0  0
    3.2530   -2.6150    2.3310 O   0  0  0  0  0  0  0  0  0  0  0  0
    5.8140    1.4400    1.9160 C   0  0  0  0  0  0  0  0  0  0  0  0
    6.8050   -0.4430    3.0510 C   0  0  0  0  0  0  0  0  0  0  0  0
    4.6500    0.6980    1.6920 C   0  0  0  0  0  0  0  0  0  0  0  0
    5.6460   -1.1890    2.8310 C   0  0  0  0  0  0  0  0  0  0  0  0
   -2.2060    1.9230    0.8550 N   0  0  0  0  0  0  0  0  0  0  0  0
    1.1850   -1.4370    0.9950 C   0  0  0  0  0  0  0  0  0  0  0  0
   -1.2350    1.3070   -3.8760 C   0  0  0  0  0  0  0  0  0  0  0  0
    0.4200   -0.5450   -3.8730 C   0  0  0  0  0  0  0  0  0  0  0  0
    9.3860    0.2630    3.9020 H   0  0  0  0  0  0  0  0  0  0  0  0
    7.6530    3.5660    1.9130 H   0  0  0  0  0  0  0  0  0  0  0  0
    5.8800    2.4580    1.5620 H   0  0  0  0  0  0  0  0  0  0  0  0
    7.6390   -0.8850    3.5760 H   0  0  0  0  0  0  0  0  0  0  0  0
    3.8170    1.1410    1.1660 H   0  0  0  0  0  0  0  0  0  0  0  0
    5.5790   -2.2070    3.1850 H   0  0  0  0  0  0  0  0  0  0  0  0
   -2.2750    1.9370    1.8630 H   0  0  0  0  0  0  0  0  0  0  0  0
   -2.7880    2.5340    0.3000 H   0  0  0  0  0  0  0  0  0  0  0  0
    1.3880   -2.3210    0.3900 H   0  0  0  0  0  0  0  0  0  0  0  0
    0.7190   -1.7380    1.9330 H   0  0  0  0  0  0  0  0  0  0  0  0
   -1.8180    1.9280   -3.1960 H   0  0  0  0  0  0  0  0  0  0  0  0
   -1.9080    0.7540   -4.5310 H   0  0  0  0  0  0  0  0  0  0  0  0
   -0.5820    1.9400   -4.4770 H   0  0  0  0  0  0  0  0  0  0  0  0
    0.9720   -1.1940   -3.1930 H   0  0  0  0  0  0  0  0  0  0  0  0
    1.1220    0.0330   -4.4740 H   0  0  0  0  0  0  0  0  0  0  0  0
   -0.2040   -1.1530   -4.5280 H   0  0  0  0  0  0  0  0  0  0  0  0
  1  2  2  0  0  0  0
  1  3  1  0  0  0  0
  1 13  1  0  0  0  0
  2  5  1  0  0  0  0
  3  7  2  0  0  0  0
  4  5  2  0  0  0  0
  4  7  1  0  0  0  0
  5 22  1  0  0  0  0
  6 11  1  0  0  0  0
  6 12  1  0  0  0  0
  6 14  1  0  0  0  0
  7 23  1  0  0  0  0
  8  9  1  0  0  0  0
  8 12  2  0  0  0  0
  9 11  2  0  0  0  0
 10 15  1  0  0  0  0
 10 16  1  0  0  0  0
 10 17  2  0  0  0  0
 11 26  1  0  0  0  0
 12 27  1  0  0  0  0
 13 24  1  0  0  0  0
 13 25  1  0  0  0  0
 14 18  2  0  0  0  0
 14 19  1  0  0  0  0
 15 20  2  0  0  0  0
 15 21  1  0  0  0  0
 16 23  1  0  0  0  0
 18 20  1  0  0  0  0
 18 28  1  0  0  0  0
 19 21  2  0  0  0  0
 19 29  1  0  0  0  0
 20 30  1  0  0  0  0
 21 31  1  0  0  0  0
 22 32  1  0  0  0  0
 22 33  1  0  0  0  0
 23 34  1  0  0  0  0
 23 35  1  0  0  0  0
 24 36  1  0  0  0  0
 24 37  1  0  0  0  0
 24 38  1  0  0  0  0
 25 39  1  0  0  0  0
 25 40  1  0  0  0  0
 25 41  1  0  0  0  0
M  END
>  <$CLUSTER>
187

>  <INDEX>
118465

$$$$
