Chembridge 5707467
 OpenBabel04062209303D

 50 52  0  0  0  0  0  0  0  0999 V2000
   -2.0460    0.0780    0.4050 S   0  0  0  0  0  0  0  0  0  0  0  0
   -0.6200   -0.8550    0.6150 N   0  0  0  0  0  0  0  0  0  0  0  0
    3.9810    1.0760   -2.1870 C   0  0  0  0  0  0  0  0  0  0  0  0
    4.6030    2.2110   -1.7160 N   0  0  0  0  0  0  0  0  0  0  0  0
   -3.1850   -0.6960    0.8640 O   0  0  0  0  0  0  0  0  0  0  0  0
   -2.0620    0.6870   -0.9110 O   0  0  0  0  0  0  0  0  0  0  0  0
   -1.7970    1.3820    1.5930 C   0  0  0  0  0  0  0  0  0  0  0  0
    0.5730   -0.3860   -0.0520 C   0  0  0  0  0  0  0  0  0  0  0  0
    2.8070    0.5860   -1.4210 C   0  0  0  0  0  0  0  0  0  0  0  0
    7.1790    4.8300   -1.8440 C   0  0  0  0  0  0  0  0  0  0  0  0
    5.6930    2.9300   -2.1630 C   0  0  0  0  0  0  0  0  0  0  0  0
    6.0840    4.0640   -1.4370 C   0  0  0  0  0  0  0  0  0  0  0  0
    4.3460    0.4800   -3.1950 O   0  0  0  0  0  0  0  0  0  0  0  0
    7.8950    4.4710   -2.9820 C   0  0  0  0  0  0  0  0  0  0  0  0
    1.5300    0.3810    0.6220 C   0  0  0  0  0  0  0  0  0  0  0  0
    0.7270   -0.6440   -1.4180 C   0  0  0  0  0  0  0  0  0  0  0  0
    1.8460   -0.1630   -2.0990 C   0  0  0  0  0  0  0  0  0  0  0  0
    2.6480    0.8600   -0.0630 C   0  0  0  0  0  0  0  0  0  0  0  0
    7.5140    3.3460   -3.7110 C   0  0  0  0  0  0  0  0  0  0  0  0
    6.4180    2.5770   -3.3060 C   0  0  0  0  0  0  0  0  0  0  0  0
   -0.4340   -1.5790    1.8960 C   0  0  0  0  0  0  0  0  0  0  0  0
    7.5780    6.0330   -1.0530 C   0  0  0  0  0  0  0  0  0  0  0  0
   -2.2410    1.2280    2.9150 C   0  0  0  0  0  0  0  0  0  0  0  0
   -1.1910    2.5840    1.1960 C   0  0  0  0  0  0  0  0  0  0  0  0
    9.0650    5.2860   -3.4230 C   0  0  0  0  0  0  0  0  0  0  0  0
   -1.0200    3.6160    2.1200 C   0  0  0  0  0  0  0  0  0  0  0  0
   -2.0670    2.2650    3.8330 C   0  0  0  0  0  0  0  0  0  0  0  0
   -1.4580    3.4560    3.4360 C   0  0  0  0  0  0  0  0  0  0  0  0
    4.1790    2.5910   -0.8820 H   0  0  0  0  0  0  0  0  0  0  0  0
    5.5320    4.3480   -0.5530 H   0  0  0  0  0  0  0  0  0  0  0  0
    1.4040    0.6020    1.6720 H   0  0  0  0  0  0  0  0  0  0  0  0
   -0.0210   -1.2160   -1.9460 H   0  0  0  0  0  0  0  0  0  0  0  0
    1.9680   -0.3710   -3.1520 H   0  0  0  0  0  0  0  0  0  0  0  0
    3.3910    1.4440    0.4600 H   0  0  0  0  0  0  0  0  0  0  0  0
    8.0690    3.0660   -4.5940 H   0  0  0  0  0  0  0  0  0  0  0  0
    6.1300    1.7070   -3.8780 H   0  0  0  0  0  0  0  0  0  0  0  0
   -1.4060   -1.8750    2.2900 H   0  0  0  0  0  0  0  0  0  0  0  0
    0.0650   -0.9270    2.6130 H   0  0  0  0  0  0  0  0  0  0  0  0
    0.1750   -2.4670    1.7260 H   0  0  0  0  0  0  0  0  0  0  0  0
    6.9030    6.1500   -0.2050 H   0  0  0  0  0  0  0  0  0  0  0  0
    7.5230    6.9190   -1.6860 H   0  0  0  0  0  0  0  0  0  0  0  0
    8.5980    5.9080   -0.6910 H   0  0  0  0  0  0  0  0  0  0  0  0
   -2.7170    0.3080    3.2220 H   0  0  0  0  0  0  0  0  0  0  0  0
   -0.8570    2.7100    0.1770 H   0  0  0  0  0  0  0  0  0  0  0  0
    9.2090    6.1180   -2.7340 H   0  0  0  0  0  0  0  0  0  0  0  0
    8.8820    5.6720   -4.4260 H   0  0  0  0  0  0  0  0  0  0  0  0
    9.9590    4.6630   -3.4320 H   0  0  0  0  0  0  0  0  0  0  0  0
   -0.5480    4.5390    1.8170 H   0  0  0  0  0  0  0  0  0  0  0  0
   -2.4040    2.1450    4.8520 H   0  0  0  0  0  0  0  0  0  0  0  0
   -1.3250    4.2560    4.1490 H   0  0  0  0  0  0  0  0  0  0  0  0
  1  2  1  0  0  0  0
  1  5  2  0  0  0  0
  1  6  2  0  0  0  0
  1  7  1  0  0  0  0
  2  8  1  0  0  0  0
  2 21  1  0  0  0  0
  3  4  1  0  0  0  0
  3  9  1  0  0  0  0
  3 13  2  0  0  0  0
  4 11  1  0  0  0  0
  4 29  1  0  0  0  0
  7 23  1  0  0  0  0
  7 24  2  0  0  0  0
  8 15  1  0  0  0  0
  8 16  2  0  0  0  0
  9 17  2  0  0  0  0
  9 18  1  0  0  0  0
 10 12  2  0  0  0  0
 10 14  1  0  0  0  0
 10 22  1  0  0  0  0
 11 12  1  0  0  0  0
 11 20  2  0  0  0  0
 12 30  1  0  0  0  0
 14 19  2  0  0  0  0
 14 25  1  0  0  0  0
 15 18  2  0  0  0  0
 15 31  1  0  0  0  0
 16 17  1  0  0  0  0
 16 32  1  0  0  0  0
 17 33  1  0  0  0  0
 18 34  1  0  0  0  0
 19 20  1  0  0  0  0
 19 35  1  0  0  0  0
 20 36  1  0  0  0  0
 21 37  1  0  0  0  0
 21 38  1  0  0  0  0
 21 39  1  0  0  0  0
 22 40  1  0  0  0  0
 22 41  1  0  0  0  0
 22 42  1  0  0  0  0
 23 27  2  0  0  0  0
 23 43  1  0  0  0  0
 24 26  1  0  0  0  0
 24 44  1  0  0  0  0
 25 45  1  0  0  0  0
 25 46  1  0  0  0  0
 25 47  1  0  0  0  0
 26 28  2  0  0  0  0
 26 48  1  0  0  0  0
 27 28  1  0  0  0  0
 27 49  1  0  0  0  0
 28 50  1  0  0  0  0
M  END
>  <$CLUSTER>
115

>  <INDEX>
51140

$$$$
