Asinex ASN 04371767
 OpenBabel04062209303D

 50 53  0  0  0  0  0  0  0  0999 V2000
   -0.4190   -0.6120    0.4920 N   0  0  0  0  0  0  0  0  0  0  0  0
    0.3640   -1.4230   -0.3320 C   0  0  0  0  0  0  0  0  0  0  0  0
    1.0710   -0.6830   -1.1560 N   0  0  0  0  0  0  0  0  0  0  0  0
   -0.1030    0.6720    0.0750 C   0  0  0  0  0  0  0  0  0  0  0  0
    0.7790    0.6250   -0.9010 N   0  0  0  0  0  0  0  0  0  0  0  0
   -1.2890   -1.1570    1.4840 C   0  0  0  0  0  0  0  0  0  0  0  0
    0.3110   -2.8300   -0.1970 C   0  0  0  0  0  0  0  0  0  0  0  0
   -1.3170   -2.5660    1.5910 C   0  0  0  0  0  0  0  0  0  0  0  0
   -0.4850   -3.3960    0.7150 C   0  0  0  0  0  0  0  0  0  0  0  0
   -0.7360    2.1570    0.7040 S   0  0  0  0  0  0  0  0  0  0  0  0
   -2.0950   -0.3950    2.3320 C   0  0  0  0  0  0  0  0  0  0  0  0
    4.5420    6.8140    5.0000 C   0  0  0  0  0  0  0  0  0  0  0  0
    1.6010    3.4250    0.0300 C   0  0  0  0  0  0  0  0  0  0  0  0
   -2.1440   -3.1830    2.5390 C   0  0  0  0  0  0  0  0  0  0  0  0
    3.2700    6.6100    4.4800 N   0  0  0  0  0  0  0  0  0  0  0  0
    2.0070    4.2680    1.2140 C   0  0  0  0  0  0  0  0  0  0  0  0
    0.1180    3.3860   -0.3070 C   0  0  0  0  0  0  0  0  0  0  0  0
    5.6030    6.3400    4.6080 O   0  0  0  0  0  0  0  0  0  0  0  0
    2.4360    2.7820   -0.6120 O   0  0  0  0  0  0  0  0  0  0  0  0
    3.3810    4.2980    1.5300 C   0  0  0  0  0  0  0  0  0  0  0  0
    1.1060    4.9920    1.9580 C   0  0  0  0  0  0  0  0  0  0  0  0
    2.9040    5.7990    3.3630 C   0  0  0  0  0  0  0  0  0  0  0  0
   -2.9420   -2.4120    3.3780 C   0  0  0  0  0  0  0  0  0  0  0  0
   -2.9160   -1.0240    3.2740 C   0  0  0  0  0  0  0  0  0  0  0  0
    1.5500    5.7610    3.0380 C   0  0  0  0  0  0  0  0  0  0  0  0
    3.8180    5.0680    2.6090 C   0  0  0  0  0  0  0  0  0  0  0  0
    1.1720   -3.6650   -1.1060 C   0  0  0  0  0  0  0  0  0  0  0  0
   -3.7050   -3.1350    4.2620 O   0  0  0  0  0  0  0  0  0  0  0  0
    4.5030    7.7430    6.1880 C   0  0  0  0  0  0  0  0  0  0  0  0
   -4.5420   -2.3960    5.1440 C   0  0  0  0  0  0  0  0  0  0  0  0
   -0.5150   -4.4720    0.8070 H   0  0  0  0  0  0  0  0  0  0  0  0
   -2.0850    0.6830    2.2610 H   0  0  0  0  0  0  0  0  0  0  0  0
   -2.1620   -4.2600    2.6190 H   0  0  0  0  0  0  0  0  0  0  0  0
    2.5150    7.0920    4.9470 H   0  0  0  0  0  0  0  0  0  0  0  0
   -0.3170    4.3680   -0.1200 H   0  0  0  0  0  0  0  0  0  0  0  0
   -0.0030    3.1300   -1.3600 H   0  0  0  0  0  0  0  0  0  0  0  0
    4.0880    3.7310    0.9430 H   0  0  0  0  0  0  0  0  0  0  0  0
    0.0560    4.9670    1.7080 H   0  0  0  0  0  0  0  0  0  0  0  0
   -3.5360   -0.4270    3.9270 H   0  0  0  0  0  0  0  0  0  0  0  0
    0.8400    6.3280    3.6230 H   0  0  0  0  0  0  0  0  0  0  0  0
    4.8680    5.0970    2.8600 H   0  0  0  0  0  0  0  0  0  0  0  0
    1.7390   -3.0120   -1.7690 H   0  0  0  0  0  0  0  0  0  0  0  0
    0.5400   -4.3260   -1.6990 H   0  0  0  0  0  0  0  0  0  0  0  0
    1.8600   -4.2620   -0.5070 H   0  0  0  0  0  0  0  0  0  0  0  0
    3.4740    8.0520    6.3740 H   0  0  0  0  0  0  0  0  0  0  0  0
    5.1150    8.6220    5.9830 H   0  0  0  0  0  0  0  0  0  0  0  0
    4.8920    7.2270    7.0660 H   0  0  0  0  0  0  0  0  0  0  0  0
   -5.0890   -3.0850    5.7880 H   0  0  0  0  0  0  0  0  0  0  0  0
   -5.2480   -1.8030    4.5630 H   0  0  0  0  0  0  0  0  0  0  0  0
   -3.9300   -1.7340    5.7570 H   0  0  0  0  0  0  0  0  0  0  0  0
  1  2  1  0  0  0  0
  1  4  1  0  0  0  0
  1  6  1  0  0  0  0
  2  3  2  0  0  0  0
  2  7  1  0  0  0  0
  3  5  1  0  0  0  0
  4  5  2  0  0  0  0
  4 10  1  0  0  0  0
  6  8  2  0  0  0  0
  6 11  1  0  0  0  0
  7  9  2  0  0  0  0
  7 27  1  0  0  0  0
  8  9  1  0  0  0  0
  8 14  1  0  0  0  0
  9 31  1  0  0  0  0
 10 17  1  0  0  0  0
 11 24  2  0  0  0  0
 11 32  1  0  0  0  0
 12 15  1  0  0  0  0
 12 18  2  0  0  0  0
 12 29  1  0  0  0  0
 13 16  1  0  0  0  0
 13 17  1  0  0  0  0
 13 19  2  0  0  0  0
 14 23  2  0  0  0  0
 14 33  1  0  0  0  0
 15 22  1  0  0  0  0
 15 34  1  0  0  0  0
 16 20  1  0  0  0  0
 16 21  2  0  0  0  0
 17 35  1  0  0  0  0
 17 36  1  0  0  0  0
 20 26  2  0  0  0  0
 20 37  1  0  0  0  0
 21 25  1  0  0  0  0
 21 38  1  0  0  0  0
 22 25  2  0  0  0  0
 22 26  1  0  0  0  0
 23 24  1  0  0  0  0
 23 28  1  0  0  0  0
 24 39  1  0  0  0  0
 25 40  1  0  0  0  0
 26 41  1  0  0  0  0
 27 42  1  0  0  0  0
 27 43  1  0  0  0  0
 27 44  1  0  0  0  0
 28 30  1  0  0  0  0
 29 45  1  0  0  0  0
 29 46  1  0  0  0  0
 29 47  1  0  0  0  0
 30 48  1  0  0  0  0
 30 49  1  0  0  0  0
 30 50  1  0  0  0  0
M  END
>  <$CLUSTER>
255

>  <INDEX>
138217

$$$$
