A-Synthese-Biotech EX-14747
 OpenBabel04062209303D

 47 50  0  0  0  0  0  0  0  0999 V2000
   -0.1310    0.9330    0.0360 C   0  0  0  0  0  0  0  0  0  0  0  0
    3.0960    2.7350    0.2180 C   0  0  0  0  0  0  0  0  0  0  0  0
    1.2630    1.1680    0.0750 C   0  0  0  0  0  0  0  0  0  0  0  0
    1.6840    2.4930    0.1810 O   0  0  0  0  0  0  0  0  0  0  0  0
   -4.0060    3.4610    1.4100 C   0  0  0  0  0  0  0  0  0  0  0  0
   -0.6480   -0.3870   -0.0780 C   0  0  0  0  0  0  0  0  0  0  0  0
   -4.6030    4.8620    1.2750 C   0  0  0  0  0  0  0  0  0  0  0  0
   -2.1720    2.1590    0.6410 N   0  0  0  0  0  0  0  0  0  0  0  0
    3.3580    4.1750    0.3300 C   0  0  0  0  0  0  0  0  0  0  0  0
   -0.9910    2.1300    0.1070 C   0  0  0  0  0  0  0  0  0  0  0  0
   -2.7920    3.3440    0.6080 N   0  0  0  0  0  0  0  0  0  0  0  0
    3.9120    1.8380    0.1600 O   0  0  0  0  0  0  0  0  0  0  0  0
    2.1450    0.0830    0.0270 C   0  0  0  0  0  0  0  0  0  0  0  0
   -4.5100    2.6120    2.0950 O   0  0  0  0  0  0  0  0  0  0  0  0
   -6.2210    6.3670    2.2980 N   0  0  0  0  0  0  0  0  0  0  0  0
    0.2780   -1.4650   -0.1210 C   0  0  0  0  0  0  0  0  0  0  0  0
    1.6540   -1.2160   -0.0630 C   0  0  0  0  0  0  0  0  0  0  0  0
    2.3560    5.1350    0.3900 C   0  0  0  0  0  0  0  0  0  0  0  0
    4.7030    4.5540    0.3770 C   0  0  0  0  0  0  0  0  0  0  0  0
    4.0350    6.8700    0.5440 C   0  0  0  0  0  0  0  0  0  0  0  0
   -5.5590    5.1740    2.2560 C   0  0  0  0  0  0  0  0  0  0  0  0
    5.0380    5.9050    0.4830 C   0  0  0  0  0  0  0  0  0  0  0  0
    2.6960    6.4860    0.4970 C   0  0  0  0  0  0  0  0  0  0  0  0
    4.4580    8.5140    0.6740 Cl  0  0  0  0  0  0  0  0  0  0  0  0
   -4.3340    5.7750    0.3000 C   0  0  0  0  0  0  0  0  0  0  0  0
   -2.0210   -0.7200   -0.1810 C   0  0  0  0  0  0  0  0  0  0  0  0
   -5.9160    7.2570    1.3200 C   0  0  0  0  0  0  0  0  0  0  0  0
   -0.1720   -2.7910   -0.2310 C   0  0  0  0  0  0  0  0  0  0  0  0
   -4.9920    7.0060    0.3130 C   0  0  0  0  0  0  0  0  0  0  0  0
   -2.4550   -2.0430   -0.2940 C   0  0  0  0  0  0  0  0  0  0  0  0
   -1.5310   -3.0790   -0.3150 C   0  0  0  0  0  0  0  0  0  0  0  0
   -0.6090    3.0470   -0.3160 H   0  0  0  0  0  0  0  0  0  0  0  0
   -2.4400    4.1150    0.0590 H   0  0  0  0  0  0  0  0  0  0  0  0
    3.2110    0.2540    0.0600 H   0  0  0  0  0  0  0  0  0  0  0  0
    2.3460   -2.0450   -0.0880 H   0  0  0  0  0  0  0  0  0  0  0  0
    1.3180    4.8380    0.3540 H   0  0  0  0  0  0  0  0  0  0  0  0
    5.4790    3.8050    0.3310 H   0  0  0  0  0  0  0  0  0  0  0  0
   -5.7810    4.4350    3.0120 H   0  0  0  0  0  0  0  0  0  0  0  0
    6.0760    6.2020    0.5180 H   0  0  0  0  0  0  0  0  0  0  0  0
    1.9190    7.2350    0.5430 H   0  0  0  0  0  0  0  0  0  0  0  0
   -3.6180    5.5480   -0.4760 H   0  0  0  0  0  0  0  0  0  0  0  0
   -2.7540    0.0730   -0.1720 H   0  0  0  0  0  0  0  0  0  0  0  0
   -6.4190    8.2130    1.3250 H   0  0  0  0  0  0  0  0  0  0  0  0
    0.5460   -3.5980   -0.2510 H   0  0  0  0  0  0  0  0  0  0  0  0
   -4.7870    7.7480   -0.4440 H   0  0  0  0  0  0  0  0  0  0  0  0
   -3.5110   -2.2600   -0.3650 H   0  0  0  0  0  0  0  0  0  0  0  0
   -1.8650   -4.1030   -0.3960 H   0  0  0  0  0  0  0  0  0  0  0  0
  1  3  2  0  0  0  0
  1  6  1  0  0  0  0
  1 10  1  0  0  0  0
  2  4  1  0  0  0  0
  2  9  1  0  0  0  0
  2 12  2  0  0  0  0
  3  4  1  0  0  0  0
  3 13  1  0  0  0  0
  5  7  1  0  0  0  0
  5 11  1  0  0  0  0
  5 14  2  0  0  0  0
  6 16  2  0  0  0  0
  6 26  1  0  0  0  0
  7 21  2  0  0  0  0
  7 25  1  0  0  0  0
  8 10  2  0  0  0  0
  8 11  1  0  0  0  0
  9 18  1  0  0  0  0
  9 19  2  0  0  0  0
 10 32  1  0  0  0  0
 11 33  1  0  0  0  0
 13 17  2  0  0  0  0
 13 34  1  0  0  0  0
 15 21  1  0  0  0  0
 15 27  2  0  0  0  0
 16 17  1  0  0  0  0
 16 28  1  0  0  0  0
 17 35  1  0  0  0  0
 18 23  2  0  0  0  0
 18 36  1  0  0  0  0
 19 22  1  0  0  0  0
 19 37  1  0  0  0  0
 20 22  2  0  0  0  0
 20 23  1  0  0  0  0
 20 24  1  0  0  0  0
 21 38  1  0  0  0  0
 22 39  1  0  0  0  0
 23 40  1  0  0  0  0
 25 29  2  0  0  0  0
 25 41  1  0  0  0  0
 26 30  2  0  0  0  0
 26 42  1  0  0  0  0
 27 29  1  0  0  0  0
 27 43  1  0  0  0  0
 28 31  2  0  0  0  0
 28 44  1  0  0  0  0
 29 45  1  0  0  0  0
 30 31  1  0  0  0  0
 30 46  1  0  0  0  0
 31 47  1  0  0  0  0
M  END
>  <$CLUSTER>
311

>  <INDEX>
197938

$$$$
