InterBioScreen STOCK3S-81928
 OpenBabel04062209303D

 50 53  0  0  0  0  0  0  0  0999 V2000
    1.2820   -0.0530    0.4660 N   0  0  0  0  0  0  0  0  0  0  0  0
    0.8160   -1.2000   -0.1540 C   0  0  0  0  0  0  0  0  0  0  0  0
    0.3010    0.9210    0.3350 C   0  0  0  0  0  0  0  0  0  0  0  0
   -0.8070    0.3960   -0.3140 C   0  0  0  0  0  0  0  0  0  0  0  0
   -0.4700   -0.9500   -0.6230 C   0  0  0  0  0  0  0  0  0  0  0  0
    1.4770   -2.3650   -0.3220 N   0  0  0  0  0  0  0  0  0  0  0  0
   -1.1840   -1.9060   -1.2750 N   0  0  0  0  0  0  0  0  0  0  0  0
    2.4770    0.1970    1.0920 N   0  0  0  0  0  0  0  0  0  0  0  0
   -2.0320    1.1390   -0.6000 C   0  0  0  0  0  0  0  0  0  0  0  0
    0.7490   -3.2920   -0.9720 C   0  0  0  0  0  0  0  0  0  0  0  0
   -0.5340   -3.0730   -1.4280 C   0  0  0  0  0  0  0  0  0  0  0  0
    3.1190   -0.8000    1.5940 C   0  0  0  0  0  0  0  0  0  0  0  0
    0.5210    2.1570    0.8290 N   0  0  0  0  0  0  0  0  0  0  0  0
   -2.1870    2.3150   -0.2790 O   0  0  0  0  0  0  0  0  0  0  0  0
    6.1990    0.7630    3.0590 N   0  0  0  0  0  0  0  0  0  0  0  0
    4.4040   -0.6700    2.2820 C   0  0  0  0  0  0  0  0  0  0  0  0
   -3.0110    0.4270   -1.2580 N   0  0  0  0  0  0  0  0  0  0  0  0
    5.0040    0.5740    2.4280 C   0  0  0  0  0  0  0  0  0  0  0  0
    6.8000   -0.3510    3.5550 C   0  0  0  0  0  0  0  0  0  0  0  0
   -1.2210   -4.1240   -2.1150 C   0  0  0  0  0  0  0  0  0  0  0  0
    1.3540   -4.5710   -1.1880 C   0  0  0  0  0  0  0  0  0  0  0  0
    5.0400   -1.7890    2.7990 C   0  0  0  0  0  0  0  0  0  0  0  0
   -4.3000    0.9310   -1.6470 C   0  0  0  0  0  0  0  0  0  0  0  0
   -5.3060    0.8160   -0.5160 C   0  0  0  0  0  0  0  0  0  0  0  0
   -6.6800    1.3340   -0.9150 C   0  0  0  0  0  0  0  0  0  0  0  0
    6.2640   -1.6300    3.4500 C   0  0  0  0  0  0  0  0  0  0  0  0
   -7.6820    1.2170    0.2190 C   0  0  0  0  0  0  0  0  0  0  0  0
   -0.6180   -5.3650   -2.3200 C   0  0  0  0  0  0  0  0  0  0  0  0
    0.6740   -5.5880   -1.8550 C   0  0  0  0  0  0  0  0  0  0  0  0
    2.6860   -1.7850    1.5020 H   0  0  0  0  0  0  0  0  0  0  0  0
   -0.1930    2.8670    0.7490 H   0  0  0  0  0  0  0  0  0  0  0  0
    1.3990    2.3720    1.2790 H   0  0  0  0  0  0  0  0  0  0  0  0
   -2.8050   -0.5350   -1.4880 H   0  0  0  0  0  0  0  0  0  0  0  0
    4.4980    1.4370    2.0210 H   0  0  0  0  0  0  0  0  0  0  0  0
    7.7480   -0.2360    4.0590 H   0  0  0  0  0  0  0  0  0  0  0  0
   -2.2230   -3.9530   -2.4810 H   0  0  0  0  0  0  0  0  0  0  0  0
    2.3560   -4.7510   -0.8270 H   0  0  0  0  0  0  0  0  0  0  0  0
    4.5950   -2.7680    2.6990 H   0  0  0  0  0  0  0  0  0  0  0  0
   -4.6610    0.3590   -2.5020 H   0  0  0  0  0  0  0  0  0  0  0  0
   -4.2010    1.9800   -1.9270 H   0  0  0  0  0  0  0  0  0  0  0  0
   -4.9460    1.3950    0.3350 H   0  0  0  0  0  0  0  0  0  0  0  0
   -5.3950   -0.2320   -0.2310 H   0  0  0  0  0  0  0  0  0  0  0  0
   -7.0410    0.7550   -1.7650 H   0  0  0  0  0  0  0  0  0  0  0  0
   -6.5920    2.3820   -1.2000 H   0  0  0  0  0  0  0  0  0  0  0  0
    6.7840   -2.4820    3.8630 H   0  0  0  0  0  0  0  0  0  0  0  0
   -7.7780    0.1720    0.5130 H   0  0  0  0  0  0  0  0  0  0  0  0
   -8.6510    1.5920   -0.1120 H   0  0  0  0  0  0  0  0  0  0  0  0
   -7.3370    1.8030    1.0710 H   0  0  0  0  0  0  0  0  0  0  0  0
   -1.1520   -6.1490   -2.8370 H   0  0  0  0  0  0  0  0  0  0  0  0
    1.1480   -6.5460   -2.0100 H   0  0  0  0  0  0  0  0  0  0  0  0
  1  2  1  0  0  0  0
  1  3  1  0  0  0  0
  1  8  1  0  0  0  0
  2  5  2  0  0  0  0
  2  6  1  0  0  0  0
  3  4  2  0  0  0  0
  3 13  1  0  0  0  0
  4  5  1  0  0  0  0
  4  9  1  0  0  0  0
  5  7  1  0  0  0  0
  6 10  2  0  0  0  0
  7 11  2  0  0  0  0
  8 12  2  0  0  0  0
  9 14  2  0  0  0  0
  9 17  1  0  0  0  0
 10 11  1  0  0  0  0
 10 21  1  0  0  0  0
 11 20  1  0  0  0  0
 12 16  1  0  0  0  0
 12 30  1  0  0  0  0
 13 31  1  0  0  0  0
 13 32  1  0  0  0  0
 15 18  2  0  0  0  0
 15 19  1  0  0  0  0
 16 18  1  0  0  0  0
 16 22  2  0  0  0  0
 17 23  1  0  0  0  0
 17 33  1  0  0  0  0
 18 34  1  0  0  0  0
 19 26  2  0  0  0  0
 19 35  1  0  0  0  0
 20 28  2  0  0  0  0
 20 36  1  0  0  0  0
 21 29  2  0  0  0  0
 21 37  1  0  0  0  0
 22 26  1  0  0  0  0
 22 38  1  0  0  0  0
 23 24  1  0  0  0  0
 23 39  1  0  0  0  0
 23 40  1  0  0  0  0
 24 25  1  0  0  0  0
 24 41  1  0  0  0  0
 24 42  1  0  0  0  0
 25 27  1  0  0  0  0
 25 43  1  0  0  0  0
 25 44  1  0  0  0  0
 26 45  1  0  0  0  0
 27 46  1  0  0  0  0
 27 47  1  0  0  0  0
 27 48  1  0  0  0  0
 28 29  1  0  0  0  0
 28 49  1  0  0  0  0
 29 50  1  0  0  0  0
M  END
>  <$CLUSTER>
529

>  <INDEX>
345754

$$$$
