Nanosyn NS61821
 OpenBabel04062209303D

 51 53  0  0  0  0  0  0  0  0999 V2000
    1.5660    1.3410   -0.0310 S   0  0  0  0  0  0  0  0  0  0  0  0
    0.0890    1.1350    0.7380 N   0  0  0  0  0  0  0  0  0  0  0  0
   -0.6420    0.0230    0.3240 C   0  0  0  0  0  0  0  0  0  0  0  0
    5.6360   -3.4340    3.0170 C   0  0  0  0  0  0  0  0  0  0  0  0
   -1.3630    0.1340   -0.8020 N   0  0  0  0  0  0  0  0  0  0  0  0
   -0.5130   -1.0660    1.0940 N   0  0  0  0  0  0  0  0  0  0  0  0
    6.2700   -4.8030    3.0740 C   0  0  0  0  0  0  0  0  0  0  0  0
    2.5370   -0.0360    0.5860 C   0  0  0  0  0  0  0  0  0  0  0  0
    4.8320   -3.3000    1.8920 N   0  0  0  0  0  0  0  0  0  0  0  0
    2.1480    2.5670    0.5000 O   0  0  0  0  0  0  0  0  0  0  0  0
    1.4130    1.1990   -1.4710 O   0  0  0  0  0  0  0  0  0  0  0  0
   -2.0340   -0.9820   -1.1670 C   0  0  0  0  0  0  0  0  0  0  0  0
   -1.2080   -2.1500    0.6820 C   0  0  0  0  0  0  0  0  0  0  0  0
    6.6590   -5.2550    4.3720 C   0  0  0  0  0  0  0  0  0  0  0  0
    6.5480   -5.5850    1.9780 C   0  0  0  0  0  0  0  0  0  0  0  0
    5.8550   -2.6040    3.8930 O   0  0  0  0  0  0  0  0  0  0  0  0
   -1.9930   -2.1640   -0.4540 C   0  0  0  0  0  0  0  0  0  0  0  0
    7.1650   -6.8290    2.1260 C   0  0  0  0  0  0  0  0  0  0  0  0
    7.2760   -6.5000    4.5140 C   0  0  0  0  0  0  0  0  0  0  0  0
    3.2600    0.1090    1.7620 C   0  0  0  0  0  0  0  0  0  0  0  0
    2.5680   -1.2130   -0.1530 C   0  0  0  0  0  0  0  0  0  0  0  0
    4.0670   -2.1550    1.4940 C   0  0  0  0  0  0  0  0  0  0  0  0
    7.5260   -7.2870    3.3930 C   0  0  0  0  0  0  0  0  0  0  0  0
    3.3380   -2.2810    0.3100 C   0  0  0  0  0  0  0  0  0  0  0  0
    4.0290   -0.9630    2.2190 C   0  0  0  0  0  0  0  0  0  0  0  0
   -2.8600   -0.9030   -2.4170 C   0  0  0  0  0  0  0  0  0  0  0  0
   -1.0960   -3.4200    1.5520 C   0  0  0  0  0  0  0  0  0  0  0  0
    7.4390   -7.6690    0.9200 C   0  0  0  0  0  0  0  0  0  0  0  0
    7.6680   -6.9900    5.8710 C   0  0  0  0  0  0  0  0  0  0  0  0
   -0.2460    1.7700    1.4490 H   0  0  0  0  0  0  0  0  0  0  0  0
    4.7800   -4.1040    1.2830 H   0  0  0  0  0  0  0  0  0  0  0  0
    6.4770   -4.6370    5.2390 H   0  0  0  0  0  0  0  0  0  0  0  0
    6.2860   -5.2330    0.9910 H   0  0  0  0  0  0  0  0  0  0  0  0
   -2.5390   -3.0420   -0.7650 H   0  0  0  0  0  0  0  0  0  0  0  0
    3.2280    1.0360    2.3150 H   0  0  0  0  0  0  0  0  0  0  0  0
    2.0050   -1.3000   -1.0710 H   0  0  0  0  0  0  0  0  0  0  0  0
    7.9990   -8.2510    3.5040 H   0  0  0  0  0  0  0  0  0  0  0  0
    3.3700   -3.2050   -0.2480 H   0  0  0  0  0  0  0  0  0  0  0  0
    4.5950   -0.8700    3.1340 H   0  0  0  0  0  0  0  0  0  0  0  0
   -2.7760    0.0960   -2.8460 H   0  0  0  0  0  0  0  0  0  0  0  0
   -3.9030   -1.1080   -2.1770 H   0  0  0  0  0  0  0  0  0  0  0  0
   -2.5010   -1.6390   -3.1370 H   0  0  0  0  0  0  0  0  0  0  0  0
   -0.4390   -3.2230    2.3990 H   0  0  0  0  0  0  0  0  0  0  0  0
   -0.6850   -4.2340    0.9550 H   0  0  0  0  0  0  0  0  0  0  0  0
   -2.0850   -3.7000    1.9160 H   0  0  0  0  0  0  0  0  0  0  0  0
    7.0890   -7.1490    0.0280 H   0  0  0  0  0  0  0  0  0  0  0  0
    6.9170   -8.6210    1.0140 H   0  0  0  0  0  0  0  0  0  0  0  0
    8.5110   -7.8490    0.8390 H   0  0  0  0  0  0  0  0  0  0  0  0
    7.3950   -6.2450    6.6190 H   0  0  0  0  0  0  0  0  0  0  0  0
    8.7450   -7.1570    5.9000 H   0  0  0  0  0  0  0  0  0  0  0  0
    7.1500   -7.9250    6.0830 H   0  0  0  0  0  0  0  0  0  0  0  0
  1  2  1  0  0  0  0
  1  8  1  0  0  0  0
  1 10  2  0  0  0  0
  1 11  2  0  0  0  0
  2  3  1  0  0  0  0
  2 30  1  0  0  0  0
  3  5  2  0  0  0  0
  3  6  1  0  0  0  0
  4  7  1  0  0  0  0
  4  9  1  0  0  0  0
  4 16  2  0  0  0  0
  5 12  1  0  0  0  0
  6 13  2  0  0  0  0
  7 14  1  0  0  0  0
  7 15  2  0  0  0  0
  8 20  1  0  0  0  0
  8 21  2  0  0  0  0
  9 22  1  0  0  0  0
  9 31  1  0  0  0  0
 12 17  2  0  0  0  0
 12 26  1  0  0  0  0
 13 17  1  0  0  0  0
 13 27  1  0  0  0  0
 14 19  2  0  0  0  0
 14 32  1  0  0  0  0
 15 18  1  0  0  0  0
 15 33  1  0  0  0  0
 17 34  1  0  0  0  0
 18 23  2  0  0  0  0
 18 28  1  0  0  0  0
 19 23  1  0  0  0  0
 19 29  1  0  0  0  0
 20 25  2  0  0  0  0
 20 35  1  0  0  0  0
 21 24  1  0  0  0  0
 21 36  1  0  0  0  0
 22 24  2  0  0  0  0
 22 25  1  0  0  0  0
 23 37  1  0  0  0  0
 24 38  1  0  0  0  0
 25 39  1  0  0  0  0
 26 40  1  0  0  0  0
 26 41  1  0  0  0  0
 26 42  1  0  0  0  0
 27 43  1  0  0  0  0
 27 44  1  0  0  0  0
 27 45  1  0  0  0  0
 28 46  1  0  0  0  0
 28 47  1  0  0  0  0
 28 48  1  0  0  0  0
 29 49  1  0  0  0  0
 29 50  1  0  0  0  0
 29 51  1  0  0  0  0
M  END
>  <$CLUSTER>
997

>  <INDEX>
566297

$$$$
