Asinex ASN 05317597
 OpenBabel04062209303D

 45 47  0  0  0  0  0  0  0  0999 V2000
   -0.1230   -2.7460    0.6670 C   0  0  0  0  0  0  0  0  0  0  0  0
   -0.0590   -0.3440    0.3950 C   0  0  0  0  0  0  0  0  0  0  0  0
    0.0770   -0.6480    1.6690 N   0  0  0  0  0  0  0  0  0  0  0  0
   -0.2360   -1.6760   -0.6640 S   0  0  0  0  0  0  0  0  0  0  0  0
    0.0410   -2.0190    1.8250 C   0  0  0  0  0  0  0  0  0  0  0  0
   -0.2010   -4.1970    0.5030 C   0  0  0  0  0  0  0  0  0  0  0  0
   -0.0610    0.9630   -0.0630 N   0  0  0  0  0  0  0  0  0  0  0  0
   -0.0060    7.0840   -2.0130 N   0  3  0  0  0  0  0  0  0  0  0  0
   -0.1970    1.3870   -1.3780 C   0  0  0  0  0  0  0  0  0  0  0  0
   -0.3680   -4.6570   -0.7880 N   0  0  0  0  0  0  0  0  0  0  0  0
   -0.0520    5.6680   -1.8650 C   0  0  0  0  0  0  0  0  0  0  0  0
   -0.3280    7.8340   -1.0760 O   0  5  0  0  0  0  0  0  0  0  0  0
   -0.1470    2.8920   -1.4660 C   0  0  0  0  0  0  0  0  0  0  0  0
    0.3720    7.4930   -3.1240 O   0  0  0  0  0  0  0  0  0  0  0  0
   -0.1230   -4.9870    1.4440 O   0  0  0  0  0  0  0  0  0  0  0  0
   -0.3430    0.7070   -2.3890 O   0  0  0  0  0  0  0  0  0  0  0  0
    0.3070    4.8150   -2.9070 C   0  0  0  0  0  0  0  0  0  0  0  0
   -0.4660    5.1380   -0.6440 C   0  0  0  0  0  0  0  0  0  0  0  0
    0.2550    3.4310   -2.7290 C   0  0  0  0  0  0  0  0  0  0  0  0
   -0.5180    3.7530   -0.4600 C   0  0  0  0  0  0  0  0  0  0  0  0
   -0.4840   -5.9250   -1.3450 C   0  0  0  0  0  0  0  0  0  0  0  0
   -0.7260   -8.4490   -2.5560 C   0  0  0  0  0  0  0  0  0  0  0  0
    0.1820   -2.5480    3.2150 C   0  0  0  0  0  0  0  0  0  0  0  0
   -0.4420   -7.0880   -0.5710 C   0  0  0  0  0  0  0  0  0  0  0  0
   -0.6490   -6.0420   -2.7330 C   0  0  0  0  0  0  0  0  0  0  0  0
   -0.5620   -8.3440   -1.1770 C   0  0  0  0  0  0  0  0  0  0  0  0
   -0.7690   -7.2960   -3.3350 C   0  0  0  0  0  0  0  0  0  0  0  0
   -0.8330   -9.7350   -3.0250 O   0  0  0  0  0  0  0  0  0  0  0  0
   -1.0000   -9.8950   -4.4290 C   0  0  0  0  0  0  0  0  0  0  0  0
    0.0480    1.6850    0.6350 H   0  0  0  0  0  0  0  0  0  0  0  0
   -0.4160   -3.9150   -1.4720 H   0  0  0  0  0  0  0  0  0  0  0  0
    0.6260    5.2250   -3.8540 H   0  0  0  0  0  0  0  0  0  0  0  0
   -0.7470    5.7990    0.1620 H   0  0  0  0  0  0  0  0  0  0  0  0
    0.5170    2.7700   -3.5420 H   0  0  0  0  0  0  0  0  0  0  0  0
   -0.8540    3.3540    0.4850 H   0  0  0  0  0  0  0  0  0  0  0  0
    0.1370   -3.6370    3.1960 H   0  0  0  0  0  0  0  0  0  0  0  0
   -0.6270   -2.1620    3.8350 H   0  0  0  0  0  0  0  0  0  0  0  0
    1.1390   -2.2310    3.6290 H   0  0  0  0  0  0  0  0  0  0  0  0
   -0.3160   -7.0170    0.4990 H   0  0  0  0  0  0  0  0  0  0  0  0
   -0.6840   -5.1520   -3.3430 H   0  0  0  0  0  0  0  0  0  0  0  0
   -0.5270   -9.2370   -0.5710 H   0  0  0  0  0  0  0  0  0  0  0  0
   -0.8950   -7.3720   -4.4050 H   0  0  0  0  0  0  0  0  0  0  0  0
   -1.0710  -10.9560   -4.6680 H   0  0  0  0  0  0  0  0  0  0  0  0
   -0.1450   -9.4620   -4.9480 H   0  0  0  0  0  0  0  0  0  0  0  0
   -1.9120   -9.3890   -4.7460 H   0  0  0  0  0  0  0  0  0  0  0  0
  1  4  1  0  0  0  0
  1  5  2  0  0  0  0
  1  6  1  0  0  0  0
  2  3  2  0  0  0  0
  2  4  1  0  0  0  0
  2  7  1  0  0  0  0
  3  5  1  0  0  0  0
  5 23  1  0  0  0  0
  6 10  1  0  0  0  0
  6 15  2  0  0  0  0
  7  9  1  0  0  0  0
  7 30  1  0  0  0  0
  8 11  1  0  0  0  0
  8 12  1  0  0  0  0
  8 14  2  0  0  0  0
  9 13  1  0  0  0  0
  9 16  2  0  0  0  0
 10 21  1  0  0  0  0
 10 31  1  0  0  0  0
 11 17  2  0  0  0  0
 11 18  1  0  0  0  0
 13 19  2  0  0  0  0
 13 20  1  0  0  0  0
 17 19  1  0  0  0  0
 17 32  1  0  0  0  0
 18 20  2  0  0  0  0
 18 33  1  0  0  0  0
 19 34  1  0  0  0  0
 20 35  1  0  0  0  0
 21 24  2  0  0  0  0
 21 25  1  0  0  0  0
 22 26  2  0  0  0  0
 22 27  1  0  0  0  0
 22 28  1  0  0  0  0
 23 36  1  0  0  0  0
 23 37  1  0  0  0  0
 23 38  1  0  0  0  0
 24 26  1  0  0  0  0
 24 39  1  0  0  0  0
 25 27  2  0  0  0  0
 25 40  1  0  0  0  0
 26 41  1  0  0  0  0
 27 42  1  0  0  0  0
 28 29  1  0  0  0  0
 29 43  1  0  0  0  0
 29 44  1  0  0  0  0
 29 45  1  0  0  0  0
M  CHG  2   8   1  12  -1
M  END
>  <$CLUSTER>
227

>  <INDEX>
146043

$$$$
