Chem T&I AMSACS-11579
 OpenBabel04062209303D

 36 37  0  0  0  0  0  0  0  0999 V2000
    5.3150    3.4740    1.8710 S   0  0  0  0  0  0  0  0  0  0  0  0
   -0.4780    0.5280   -0.9520 N   0  0  0  0  0  0  0  0  0  0  0  0
    0.3290   -0.1170   -0.0880 N   0  0  0  0  0  0  0  0  0  0  0  0
   -0.3220   -1.0310    0.6910 C   0  0  0  0  0  0  0  0  0  0  0  0
   -1.6410   -0.9770    0.3110 C   0  0  0  0  0  0  0  0  0  0  0  0
   -1.6790   -0.0010   -0.7030 C   0  0  0  0  0  0  0  0  0  0  0  0
    6.0670    2.1320    2.7740 C   0  0  0  0  0  0  0  0  0  0  0  0
    5.3020    4.6260    2.7660 O   0  0  0  0  0  0  0  0  0  0  0  0
    6.0060    3.5700    0.5870 O   0  0  0  0  0  0  0  0  0  0  0  0
    3.7790    2.9060    1.6580 N   0  0  0  0  0  0  0  0  0  0  0  0
    6.6970    1.1100    2.0650 C   0  0  0  0  0  0  0  0  0  0  0  0
    6.0210    2.1330    4.1620 C   0  0  0  0  0  0  0  0  0  0  0  0
   -3.0110   -1.8860    0.9080 Br  0  0  0  0  0  0  0  0  0  0  0  0
    6.6140    1.0810    4.8600 C   0  0  0  0  0  0  0  0  0  0  0  0
    7.2870    0.0630    2.7720 C   0  0  0  0  0  0  0  0  0  0  0  0
    7.2450    0.0470    4.1670 C   0  0  0  0  0  0  0  0  0  0  0  0
    1.7430    0.1900   -0.0560 C   0  0  0  0  0  0  0  0  0  0  0  0
    2.0470    1.4090    0.7970 C   0  0  0  0  0  0  0  0  0  0  0  0
    3.5210    1.7390    0.8260 C   0  0  0  0  0  0  0  0  0  0  0  0
    7.8800   -1.0800    4.9140 C   0  0  0  0  0  0  0  0  0  0  0  0
    0.1110   -1.6660    1.4500 H   0  0  0  0  0  0  0  0  0  0  0  0
   -2.5800    0.2880   -1.2230 H   0  0  0  0  0  0  0  0  0  0  0  0
    3.2440    3.6660    1.2620 H   0  0  0  0  0  0  0  0  0  0  0  0
    6.7280    1.1290    0.9860 H   0  0  0  0  0  0  0  0  0  0  0  0
    5.5330    2.9370    4.6930 H   0  0  0  0  0  0  0  0  0  0  0  0
    6.5850    1.0670    5.9400 H   0  0  0  0  0  0  0  0  0  0  0  0
    7.7780   -0.7380    2.2390 H   0  0  0  0  0  0  0  0  0  0  0  0
    2.0840    0.3800   -1.0740 H   0  0  0  0  0  0  0  0  0  0  0  0
    2.2790   -0.6670    0.3530 H   0  0  0  0  0  0  0  0  0  0  0  0
    1.7120    1.2160    1.8160 H   0  0  0  0  0  0  0  0  0  0  0  0
    1.5050    2.2640    0.3920 H   0  0  0  0  0  0  0  0  0  0  0  0
    4.0690    0.8870    1.2280 H   0  0  0  0  0  0  0  0  0  0  0  0
    3.8600    1.9430   -0.1890 H   0  0  0  0  0  0  0  0  0  0  0  0
    7.7500   -0.9250    5.9850 H   0  0  0  0  0  0  0  0  0  0  0  0
    8.9440   -1.1180    4.6790 H   0  0  0  0  0  0  0  0  0  0  0  0
    7.4100   -2.0190    4.6230 H   0  0  0  0  0  0  0  0  0  0  0  0
  1  7  1  0  0  0  0
  1  8  2  0  0  0  0
  1  9  2  0  0  0  0
  1 10  1  0  0  0  0
  2  3  1  0  0  0  0
  2  6  2  0  0  0  0
  3  4  1  0  0  0  0
  3 17  1  0  0  0  0
  4  5  2  0  0  0  0
  4 21  1  0  0  0  0
  5  6  1  0  0  0  0
  5 13  1  0  0  0  0
  6 22  1  0  0  0  0
  7 11  1  0  0  0  0
  7 12  2  0  0  0  0
 10 19  1  0  0  0  0
 10 23  1  0  0  0  0
 11 15  2  0  0  0  0
 11 24  1  0  0  0  0
 12 14  1  0  0  0  0
 12 25  1  0  0  0  0
 14 16  2  0  0  0  0
 14 26  1  0  0  0  0
 15 16  1  0  0  0  0
 15 27  1  0  0  0  0
 16 20  1  0  0  0  0
 17 18  1  0  0  0  0
 17 28  1  0  0  0  0
 17 29  1  0  0  0  0
 18 19  1  0  0  0  0
 18 30  1  0  0  0  0
 18 31  1  0  0  0  0
 19 32  1  0  0  0  0
 19 33  1  0  0  0  0
 20 34  1  0  0  0  0
 20 35  1  0  0  0  0
 20 36  1  0  0  0  0
M  END
>  <$CLUSTER>
789

>  <INDEX>
518299

$$$$
