Bionet 8K-348S
 OpenBabel04062209303D

 44 46  0  0  0  0  0  0  0  0999 V2000
    0.0220   -2.3380    0.3510 S   0  0  0  0  0  0  0  0  0  0  0  0
    0.1780   -0.7160    0.9060 N   0  0  0  0  0  0  0  0  0  0  0  0
   -0.2670   -0.4000    2.2960 C   0  0  0  0  0  0  0  0  0  0  0  0
    0.6350    0.6560    2.9160 C   0  0  0  0  0  0  0  0  0  0  0  0
    2.5970    0.7770    4.5090 C   0  0  0  0  0  0  0  0  0  0  0  0
    0.5450   -3.2340    1.3660 O   0  0  0  0  0  0  0  0  0  0  0  0
    0.4790   -2.4490   -1.0220 O   0  0  0  0  0  0  0  0  0  0  0  0
   -1.7470   -2.5390    0.3460 C   0  0  0  0  0  0  0  0  0  0  0  0
    1.5920    0.1660    3.7540 N   0  0  0  0  0  0  0  0  0  0  0  0
    2.7880    2.1620    4.5110 C   0  0  0  0  0  0  0  0  0  0  0  0
    3.4440   -0.0230    5.2920 C   0  0  0  0  0  0  0  0  0  0  0  0
    0.0390    0.3170   -0.0980 C   0  0  0  0  0  0  0  0  0  0  0  0
    4.4590    0.5500    6.0590 C   0  0  0  0  0  0  0  0  0  0  0  0
    3.8070    2.7330    5.2810 C   0  0  0  0  0  0  0  0  0  0  0  0
    4.6410    1.9290    6.0540 C   0  0  0  0  0  0  0  0  0  0  0  0
    0.5280    1.8640    2.6940 O   0  0  0  0  0  0  0  0  0  0  0  0
    4.0380    4.4220    5.2800 Cl  0  0  0  0  0  0  0  0  0  0  0  0
    5.4670   -0.4540    6.9950 Cl  0  0  0  0  0  0  0  0  0  0  0  0
   -2.4100   -3.0000    1.4930 C   0  0  0  0  0  0  0  0  0  0  0  0
   -2.4780   -2.2790   -0.8250 C   0  0  0  0  0  0  0  0  0  0  0  0
   -1.1890    0.9370   -0.3480 C   0  0  0  0  0  0  0  0  0  0  0  0
    1.1520    0.6390   -0.8840 C   0  0  0  0  0  0  0  0  0  0  0  0
   -3.8610   -2.4660   -0.8390 C   0  0  0  0  0  0  0  0  0  0  0  0
    1.0430    1.5980   -1.8910 C   0  0  0  0  0  0  0  0  0  0  0  0
   -1.2940    1.8960   -1.3570 C   0  0  0  0  0  0  0  0  0  0  0  0
   -3.7940   -3.1840    1.4720 C   0  0  0  0  0  0  0  0  0  0  0  0
   -0.1790    2.2280   -2.1250 C   0  0  0  0  0  0  0  0  0  0  0  0
   -4.5170   -2.9170    0.3080 C   0  0  0  0  0  0  0  0  0  0  0  0
   -0.2270   -1.3060    2.9000 H   0  0  0  0  0  0  0  0  0  0  0  0
   -1.2910   -0.0270    2.2690 H   0  0  0  0  0  0  0  0  0  0  0  0
    1.5710   -0.8390    3.8480 H   0  0  0  0  0  0  0  0  0  0  0  0
    2.1460    2.7940    3.9150 H   0  0  0  0  0  0  0  0  0  0  0  0
    3.3080   -1.0940    5.3010 H   0  0  0  0  0  0  0  0  0  0  0  0
    5.4260    2.3740    6.6470 H   0  0  0  0  0  0  0  0  0  0  0  0
   -1.8500   -3.2130    2.3920 H   0  0  0  0  0  0  0  0  0  0  0  0
   -1.9700   -1.9350   -1.7140 H   0  0  0  0  0  0  0  0  0  0  0  0
   -2.0560    0.6740    0.2390 H   0  0  0  0  0  0  0  0  0  0  0  0
    2.0960    0.1440   -0.7100 H   0  0  0  0  0  0  0  0  0  0  0  0
   -4.4240   -2.2620   -1.7380 H   0  0  0  0  0  0  0  0  0  0  0  0
    1.9050    1.8530   -2.4900 H   0  0  0  0  0  0  0  0  0  0  0  0
   -2.2410    2.3820   -1.5430 H   0  0  0  0  0  0  0  0  0  0  0  0
   -4.3050   -3.5330    2.3570 H   0  0  0  0  0  0  0  0  0  0  0  0
   -0.2620    2.9740   -2.9020 H   0  0  0  0  0  0  0  0  0  0  0  0
   -5.5870   -3.0600    0.2950 H   0  0  0  0  0  0  0  0  0  0  0  0
  1  2  1  0  0  0  0
  1  6  2  0  0  0  0
  1  7  2  0  0  0  0
  1  8  1  0  0  0  0
  2  3  1  0  0  0  0
  2 12  1  0  0  0  0
  3  4  1  0  0  0  0
  3 29  1  0  0  0  0
  3 30  1  0  0  0  0
  4  9  1  0  0  0  0
  4 16  2  0  0  0  0
  5  9  1  0  0  0  0
  5 10  1  0  0  0  0
  5 11  2  0  0  0  0
  8 19  1  0  0  0  0
  8 20  2  0  0  0  0
  9 31  1  0  0  0  0
 10 14  2  0  0  0  0
 10 32  1  0  0  0  0
 11 13  1  0  0  0  0
 11 33  1  0  0  0  0
 12 21  1  0  0  0  0
 12 22  2  0  0  0  0
 13 15  2  0  0  0  0
 13 18  1  0  0  0  0
 14 15  1  0  0  0  0
 14 17  1  0  0  0  0
 15 34  1  0  0  0  0
 19 26  2  0  0  0  0
 19 35  1  0  0  0  0
 20 23  1  0  0  0  0
 20 36  1  0  0  0  0
 21 25  2  0  0  0  0
 21 37  1  0  0  0  0
 22 24  1  0  0  0  0
 22 38  1  0  0  0  0
 23 28  2  0  0  0  0
 23 39  1  0  0  0  0
 24 27  2  0  0  0  0
 24 40  1  0  0  0  0
 25 27  1  0  0  0  0
 25 41  1  0  0  0  0
 26 28  1  0  0  0  0
 26 42  1  0  0  0  0
 27 43  1  0  0  0  0
 28 44  1  0  0  0  0
M  END
>  <$CLUSTER>
148

>  <INDEX>
106563

$$$$
