InterBioScreen STOCK5S-22526
 OpenBabel04062209303D

 39 41  0  0  0  0  0  0  0  0999 V2000
   -5.4180   -8.7760    2.1240 N   0  0  0  0  0  0  0  0  0  0  0  0
   -5.5040  -10.0450    1.6320 C   0  0  0  0  0  0  0  0  0  0  0  0
    0.3620    0.6510   -0.0820 N   0  3  0  0  0  0  0  0  0  0  0  0
   -5.4570  -10.1580    0.3020 N   0  0  0  0  0  0  0  0  0  0  0  0
   -5.3280   -8.0910    1.0250 C   0  0  0  0  0  0  0  0  0  0  0  0
   -5.3280   -8.8290   -0.1160 O   0  0  0  0  0  0  0  0  0  0  0  0
   -0.2920   -0.6470    0.0810 C   0  0  0  0  0  0  0  0  0  0  0  0
   -5.6320  -11.2020    2.5420 C   0  0  0  0  0  0  0  0  0  0  0  0
   -3.5240   -4.6830    0.6000 C   0  0  0  0  0  0  0  0  0  0  0  0
    1.6040    0.6970   -0.1070 O   0  5  0  0  0  0  0  0  0  0  0  0
   -0.3660    1.6520   -0.1880 O   0  0  0  0  0  0  0  0  0  0  0  0
   -2.1760   -4.3530    0.5400 N   0  0  0  0  0  0  0  0  0  0  0  0
   -4.4910   -3.9320    0.5260 O   0  0  0  0  0  0  0  0  0  0  0  0
    0.4780   -1.7400    0.1970 C   0  0  0  0  0  0  0  0  0  0  0  0
   -1.7850   -0.6130    0.1000 C   0  0  0  0  0  0  0  0  0  0  0  0
   -5.6760  -11.0080    3.9310 C   0  0  0  0  0  0  0  0  0  0  0  0
   -5.7150  -12.5100    2.0420 C   0  0  0  0  0  0  0  0  0  0  0  0
   -1.6120   -3.0650    0.3830 C   0  0  0  0  0  0  0  0  0  0  0  0
   -5.1680   -6.6040    0.8500 C   0  0  0  0  0  0  0  0  0  0  0  0
   -3.7120   -6.1700    0.7750 C   0  0  0  0  0  0  0  0  0  0  0  0
   -5.8800  -13.3910    4.2880 C   0  0  0  0  0  0  0  0  0  0  0  0
   -0.2120   -2.9850    0.3520 C   0  0  0  0  0  0  0  0  0  0  0  0
   -2.3570   -1.8880    0.2560 C   0  0  0  0  0  0  0  0  0  0  0  0
   -5.7980  -12.0970    4.7970 C   0  0  0  0  0  0  0  0  0  0  0  0
   -5.8370  -13.5980    2.9120 C   0  0  0  0  0  0  0  0  0  0  0  0
   -6.0310  -14.7070    5.3570 Cl  0  0  0  0  0  0  0  0  0  0  0  0
   -1.5240   -5.1200    0.6170 H   0  0  0  0  0  0  0  0  0  0  0  0
    1.5560   -1.6840    0.1750 H   0  0  0  0  0  0  0  0  0  0  0  0
   -2.3630    0.2940    0.0040 H   0  0  0  0  0  0  0  0  0  0  0  0
   -5.6150  -10.0080    4.3340 H   0  0  0  0  0  0  0  0  0  0  0  0
   -5.6840  -12.6780    0.9760 H   0  0  0  0  0  0  0  0  0  0  0  0
   -5.6370   -6.1020    1.6960 H   0  0  0  0  0  0  0  0  0  0  0  0
   -5.6670   -6.3070   -0.0720 H   0  0  0  0  0  0  0  0  0  0  0  0
   -3.2160   -6.4720    1.6970 H   0  0  0  0  0  0  0  0  0  0  0  0
   -3.2460   -6.6760   -0.0700 H   0  0  0  0  0  0  0  0  0  0  0  0
    0.3650   -3.8930    0.4480 H   0  0  0  0  0  0  0  0  0  0  0  0
   -3.4340   -1.9630    0.2790 H   0  0  0  0  0  0  0  0  0  0  0  0
   -5.8290  -11.9350    5.8640 H   0  0  0  0  0  0  0  0  0  0  0  0
   -5.8980  -14.6010    2.5160 H   0  0  0  0  0  0  0  0  0  0  0  0
  1  2  1  0  0  0  0
  1  5  2  0  0  0  0
  2  4  2  0  0  0  0
  2  8  1  0  0  0  0
  3  7  1  0  0  0  0
  3 10  1  0  0  0  0
  3 11  2  0  0  0  0
  4  6  1  0  0  0  0
  5  6  1  0  0  0  0
  5 19  1  0  0  0  0
  7 14  2  0  0  0  0
  7 15  1  0  0  0  0
  8 16  2  0  0  0  0
  8 17  1  0  0  0  0
  9 12  1  0  0  0  0
  9 13  2  0  0  0  0
  9 20  1  0  0  0  0
 12 18  1  0  0  0  0
 12 27  1  0  0  0  0
 14 22  1  0  0  0  0
 14 28  1  0  0  0  0
 15 23  2  0  0  0  0
 15 29  1  0  0  0  0
 16 24  1  0  0  0  0
 16 30  1  0  0  0  0
 17 25  2  0  0  0  0
 17 31  1  0  0  0  0
 18 22  2  0  0  0  0
 18 23  1  0  0  0  0
 19 20  1  0  0  0  0
 19 32  1  0  0  0  0
 19 33  1  0  0  0  0
 20 34  1  0  0  0  0
 20 35  1  0  0  0  0
 21 24  2  0  0  0  0
 21 25  1  0  0  0  0
 21 26  1  0  0  0  0
 22 36  1  0  0  0  0
 23 37  1  0  0  0  0
 24 38  1  0  0  0  0
 25 39  1  0  0  0  0
M  CHG  2   3   1  10  -1
M  END
>  <$CLUSTER>
567

>  <INDEX>
368855

$$$$
