Asinex ASN 05343028
 OpenBabel04062209303D

 43 45  0  0  0  0  0  0  0  0999 V2000
    0.5050    2.0520   -0.7350 S   0  0  0  0  0  0  0  0  0  0  0  0
   -0.8110   -4.4620    2.7210 O   0  0  0  0  0  0  0  0  0  0  0  0
   -1.6620   -3.5870    2.0960 C   0  0  0  0  0  0  0  0  0  0  0  0
   -2.9260   -3.8190    2.3890 N   0  0  0  0  0  0  0  0  0  0  0  0
   -1.6840   -5.2410    3.4160 C   0  0  0  0  0  0  0  0  0  0  0  0
   -2.9380   -4.9000    3.2500 N   0  0  0  0  0  0  0  0  0  0  0  0
    0.6050    0.4240   -1.2640 N   0  0  0  0  0  0  0  0  0  0  0  0
   -1.0630   -2.5590    1.2270 C   0  0  0  0  0  0  0  0  0  0  0  0
   -3.4560   -7.9360    4.0100 C   0  0  0  0  0  0  0  0  0  0  0  0
    1.0520    2.8960   -1.7810 O   0  0  0  0  0  0  0  0  0  0  0  0
   -0.7960    2.3370   -0.1630 O   0  0  0  0  0  0  0  0  0  0  0  0
   -1.0870   -6.5450    4.4040 S   0  0  0  0  0  0  0  0  0  0  0  0
   -4.4140   -7.1700    3.4380 N   0  0  0  0  0  0  0  0  0  0  0  0
   -3.2190   -9.0840    3.6500 O   0  0  0  0  0  0  0  0  0  0  0  0
    0.3180   -2.4830    1.0480 C   0  0  0  0  0  0  0  0  0  0  0  0
   -1.9010   -1.6540    0.5760 C   0  0  0  0  0  0  0  0  0  0  0  0
   -2.6260   -7.2170    5.0690 C   0  0  0  0  0  0  0  0  0  0  0  0
    0.0220   -0.5940   -0.4320 C   0  0  0  0  0  0  0  0  0  0  0  0
    1.6930    2.0340    0.5890 C   0  0  0  0  0  0  0  0  0  0  0  0
   -5.3680   -7.4380    2.4430 C   0  0  0  0  0  0  0  0  0  0  0  0
    0.8630   -1.5010    0.2200 C   0  0  0  0  0  0  0  0  0  0  0  0
   -1.3610   -0.6700   -0.2530 C   0  0  0  0  0  0  0  0  0  0  0  0
   -5.4430   -8.6760    1.7990 C   0  0  0  0  0  0  0  0  0  0  0  0
   -6.2710   -6.4290    2.0770 C   0  0  0  0  0  0  0  0  0  0  0  0
   -6.4050   -8.8980    0.8080 C   0  0  0  0  0  0  0  0  0  0  0  0
   -7.2300   -6.6530    1.0880 C   0  0  0  0  0  0  0  0  0  0  0  0
   -7.2980   -7.8890    0.4520 C   0  0  0  0  0  0  0  0  0  0  0  0
    1.0600    0.1870   -2.1340 H   0  0  0  0  0  0  0  0  0  0  0  0
   -4.4500   -6.2260    3.7950 H   0  0  0  0  0  0  0  0  0  0  0  0
    0.9660   -3.1850    1.5510 H   0  0  0  0  0  0  0  0  0  0  0  0
   -2.9700   -1.7150    0.7140 H   0  0  0  0  0  0  0  0  0  0  0  0
   -2.3840   -7.9240    5.8630 H   0  0  0  0  0  0  0  0  0  0  0  0
   -3.2170   -6.3980    5.4790 H   0  0  0  0  0  0  0  0  0  0  0  0
    2.6830    1.8210    0.1860 H   0  0  0  0  0  0  0  0  0  0  0  0
    1.4210    1.2630    1.3110 H   0  0  0  0  0  0  0  0  0  0  0  0
    1.7030    3.0060    1.0820 H   0  0  0  0  0  0  0  0  0  0  0  0
    1.9330   -1.4420    0.0830 H   0  0  0  0  0  0  0  0  0  0  0  0
   -2.0110    0.0310   -0.7550 H   0  0  0  0  0  0  0  0  0  0  0  0
   -4.7560   -9.4640    2.0670 H   0  0  0  0  0  0  0  0  0  0  0  0
   -6.2240   -5.4670    2.5660 H   0  0  0  0  0  0  0  0  0  0  0  0
   -6.4560   -9.8580    0.3150 H   0  0  0  0  0  0  0  0  0  0  0  0
   -7.9190   -5.8670    0.8160 H   0  0  0  0  0  0  0  0  0  0  0  0
   -8.0390   -8.0650   -0.3140 H   0  0  0  0  0  0  0  0  0  0  0  0
  1  7  1  0  0  0  0
  1 10  2  0  0  0  0
  1 11  2  0  0  0  0
  1 19  1  0  0  0  0
  2  3  1  0  0  0  0
  2  5  1  0  0  0  0
  3  4  2  0  0  0  0
  3  8  1  0  0  0  0
  4  6  1  0  0  0  0
  5  6  2  0  0  0  0
  5 12  1  0  0  0  0
  7 18  1  0  0  0  0
  7 28  1  0  0  0  0
  8 15  2  0  0  0  0
  8 16  1  0  0  0  0
  9 13  1  0  0  0  0
  9 14  2  0  0  0  0
  9 17  1  0  0  0  0
 12 17  1  0  0  0  0
 13 20  1  0  0  0  0
 13 29  1  0  0  0  0
 15 21  1  0  0  0  0
 15 30  1  0  0  0  0
 16 22  2  0  0  0  0
 16 31  1  0  0  0  0
 17 32  1  0  0  0  0
 17 33  1  0  0  0  0
 18 21  2  0  0  0  0
 18 22  1  0  0  0  0
 19 34  1  0  0  0  0
 19 35  1  0  0  0  0
 19 36  1  0  0  0  0
 20 23  2  0  0  0  0
 20 24  1  0  0  0  0
 21 37  1  0  0  0  0
 22 38  1  0  0  0  0
 23 25  1  0  0  0  0
 23 39  1  0  0  0  0
 24 26  2  0  0  0  0
 24 40  1  0  0  0  0
 25 27  2  0  0  0  0
 25 41  1  0  0  0  0
 26 27  1  0  0  0  0
 26 42  1  0  0  0  0
 27 43  1  0  0  0  0
M  END
>  <$CLUSTER>
228

>  <INDEX>
146110

$$$$
