Life Chemicals F0778-0231
 OpenBabel04062209303D

 48 51  0  0  0  0  0  0  0  0999 V2000
    0.9100    0.0670    0.2250 C   0  0  0  0  0  0  0  0  0  0  0  0
   -0.0990   -0.3270   -0.6770 N   0  0  0  0  0  0  0  0  0  0  0  0
    0.4240   -0.9910   -1.7530 N   0  0  0  0  0  0  0  0  0  0  0  0
    2.0460   -0.5880   -0.2020 C   0  0  0  0  0  0  0  0  0  0  0  0
    0.6790    0.9830    1.2390 N   0  0  0  0  0  0  0  0  0  0  0  0
    1.6850   -1.1980   -1.4080 C   0  0  0  0  0  0  0  0  0  0  0  0
   -5.7130    0.3120   -0.4580 N   0  3  0  0  0  0  0  0  0  0  0  0
    1.5840    1.3030    2.2380 C   0  0  0  0  0  0  0  0  0  0  0  0
    1.0360    2.3780    3.1440 C   0  0  0  0  0  0  0  0  0  0  0  0
   -1.5120   -0.1500   -0.6080 C   0  0  0  0  0  0  0  0  0  0  0  0
   -4.3020    0.1400   -0.5320 C   0  0  0  0  0  0  0  0  0  0  0  0
    2.0110    3.1510    3.8510 C   0  0  0  0  0  0  0  0  0  0  0  0
    1.5960    4.1590    4.7240 C   0  0  0  0  0  0  0  0  0  0  0  0
    4.2420   -1.7180   -1.1610 S   0  0  0  0  0  0  0  0  0  0  0  0
   -6.2780    0.4870    0.6360 O   0  5  0  0  0  0  0  0  0  0  0  0
   -6.3140    0.2720   -1.5440 O   0  0  0  0  0  0  0  0  0  0  0  0
    2.6860    0.8090    2.4490 O   0  0  0  0  0  0  0  0  0  0  0  0
    0.2370    4.3970    4.9180 C   0  0  0  0  0  0  0  0  0  0  0  0
    3.4610   -0.7100    0.1940 C   0  0  0  0  0  0  0  0  0  0  0  0
   -0.2980    2.6170    3.3670 C   0  0  0  0  0  0  0  0  0  0  0  0
   -2.2680   -0.2110   -1.7900 C   0  0  0  0  0  0  0  0  0  0  0  0
   -2.1720    0.0220    0.6140 C   0  0  0  0  0  0  0  0  0  0  0  0
   -3.5610    0.1730    0.6480 C   0  0  0  0  0  0  0  0  0  0  0  0
   -3.6550   -0.0570   -1.7490 C   0  0  0  0  0  0  0  0  0  0  0  0
   -0.7080    3.6260    4.2430 C   0  0  0  0  0  0  0  0  0  0  0  0
    2.7060   -1.9220   -2.1790 C   0  0  0  0  0  0  0  0  0  0  0  0
    2.4640    4.9590    5.4300 O   0  0  0  0  0  0  0  0  0  0  0  0
   -0.0740    5.4050    5.8060 O   0  0  0  0  0  0  0  0  0  0  0  0
    3.8580    4.7410    5.2480 C   0  0  0  0  0  0  0  0  0  0  0  0
   -1.4510    5.6760    6.0350 C   0  0  0  0  0  0  0  0  0  0  0  0
   -0.2150    1.4520    1.2510 H   0  0  0  0  0  0  0  0  0  0  0  0
    3.0640    2.9560    3.7100 H   0  0  0  0  0  0  0  0  0  0  0  0
    3.5500   -1.2200    1.1530 H   0  0  0  0  0  0  0  0  0  0  0  0
    3.9280    0.2730    0.2610 H   0  0  0  0  0  0  0  0  0  0  0  0
   -1.0390    2.0180    2.8590 H   0  0  0  0  0  0  0  0  0  0  0  0
   -1.7740   -0.3780   -2.7360 H   0  0  0  0  0  0  0  0  0  0  0  0
   -1.6060    0.0380    1.5340 H   0  0  0  0  0  0  0  0  0  0  0  0
   -4.0630    0.3160    1.5940 H   0  0  0  0  0  0  0  0  0  0  0  0
   -4.2280   -0.0910   -2.6640 H   0  0  0  0  0  0  0  0  0  0  0  0
   -1.7610    3.8090    4.3980 H   0  0  0  0  0  0  0  0  0  0  0  0
    2.8330   -1.4810   -3.1680 H   0  0  0  0  0  0  0  0  0  0  0  0
    2.4430   -2.9750   -2.2810 H   0  0  0  0  0  0  0  0  0  0  0  0
    4.4190    5.4420    5.8660 H   0  0  0  0  0  0  0  0  0  0  0  0
    4.1160    4.8930    4.2000 H   0  0  0  0  0  0  0  0  0  0  0  0
    4.1070    3.7210    5.5390 H   0  0  0  0  0  0  0  0  0  0  0  0
   -1.5460    6.4900    6.7530 H   0  0  0  0  0  0  0  0  0  0  0  0
   -1.9360    4.7840    6.4310 H   0  0  0  0  0  0  0  0  0  0  0  0
   -1.9260    5.9620    5.0970 H   0  0  0  0  0  0  0  0  0  0  0  0
  1  2  1  0  0  0  0
  1  4  2  0  0  0  0
  1  5  1  0  0  0  0
  2  3  1  0  0  0  0
  2 10  1  0  0  0  0
  3  6  2  0  0  0  0
  4  6  1  0  0  0  0
  4 19  1  0  0  0  0
  5  8  1  0  0  0  0
  5 31  1  0  0  0  0
  6 26  1  0  0  0  0
  7 11  1  0  0  0  0
  7 15  1  0  0  0  0
  7 16  2  0  0  0  0
  8  9  1  0  0  0  0
  8 17  2  0  0  0  0
  9 12  1  0  0  0  0
  9 20  2  0  0  0  0
 10 21  1  0  0  0  0
 10 22  2  0  0  0  0
 11 23  2  0  0  0  0
 11 24  1  0  0  0  0
 12 13  2  0  0  0  0
 12 32  1  0  0  0  0
 13 18  1  0  0  0  0
 13 27  1  0  0  0  0
 14 19  1  0  0  0  0
 14 26  1  0  0  0  0
 18 25  2  0  0  0  0
 18 28  1  0  0  0  0
 19 33  1  0  0  0  0
 19 34  1  0  0  0  0
 20 25  1  0  0  0  0
 20 35  1  0  0  0  0
 21 24  2  0  0  0  0
 21 36  1  0  0  0  0
 22 23  1  0  0  0  0
 22 37  1  0  0  0  0
 23 38  1  0  0  0  0
 24 39  1  0  0  0  0
 25 40  1  0  0  0  0
 26 41  1  0  0  0  0
 26 42  1  0  0  0  0
 27 29  1  0  0  0  0
 28 30  1  0  0  0  0
 29 43  1  0  0  0  0
 29 44  1  0  0  0  0
 29 45  1  0  0  0  0
 30 46  1  0  0  0  0
 30 47  1  0  0  0  0
 30 48  1  0  0  0  0
M  CHG  2   7   1  15  -1
M  END
>  <$CLUSTER>
440

>  <INDEX>
289437

$$$$
