Asinex ASN 03365236
 OpenBabel04062209303D

 50 52  0  0  0  0  0  0  0  0999 V2000
   -0.9690   -1.3550    2.0070 C   0  0  0  0  0  0  0  0  0  0  0  0
   -2.1780   -1.8230    2.7820 C   0  0  0  0  0  0  0  0  0  0  0  0
   -1.9180   -2.4830    3.9610 N   0  0  0  0  0  0  0  0  0  0  0  0
    0.5170    1.0120    0.1900 C   0  0  0  0  0  0  0  0  0  0  0  0
    0.2370   -1.6090    2.5130 C   0  0  0  0  0  0  0  0  0  0  0  0
   -0.6590   -2.7250    4.4450 C   0  0  0  0  0  0  0  0  0  0  0  0
    0.4160   -2.3120    3.7640 C   0  0  0  0  0  0  0  0  0  0  0  0
   -0.1170   -0.2130   -0.0310 N   0  0  0  0  0  0  0  0  0  0  0  0
   -1.3190   -0.6320    0.7140 C   0  0  0  0  0  0  0  0  0  0  0  0
    0.0470    1.7710    1.2130 N   0  0  0  0  0  0  0  0  0  0  0  0
   -0.4960   -3.4210    5.6840 C   0  0  0  0  0  0  0  0  0  0  0  0
    1.7390   -2.5500    4.2410 C   0  0  0  0  0  0  0  0  0  0  0  0
    1.9030   -3.2290    5.4510 C   0  0  0  0  0  0  0  0  0  0  0  0
    0.7870   -3.6640    6.1690 C   0  0  0  0  0  0  0  0  0  0  0  0
    1.8100    1.6340   -0.6860 S   0  0  0  0  0  0  0  0  0  0  0  0
   -3.3210   -1.6230    2.3800 O   0  0  0  0  0  0  0  0  0  0  0  0
    0.1690    2.9470    1.9230 C   0  0  0  0  0  0  0  0  0  0  0  0
    0.4130    5.3500    3.3820 C   0  0  0  0  0  0  0  0  0  0  0  0
    0.4660    6.4590    4.1160 F   0  0  0  0  0  0  0  0  0  0  0  0
    1.1460    3.8880    1.5920 C   0  0  0  0  0  0  0  0  0  0  0  0
   -0.6870    3.2340    3.0020 C   0  0  0  0  0  0  0  0  0  0  0  0
    1.2670    5.0810    2.3150 C   0  0  0  0  0  0  0  0  0  0  0  0
   -0.5680    4.4240    3.7270 C   0  0  0  0  0  0  0  0  0  0  0  0
    0.3650   -1.1860   -1.0320 C   0  0  0  0  0  0  0  0  0  0  0  0
   -0.1590    0.3010   -2.8860 O   0  0  0  0  0  0  0  0  0  0  0  0
    0.9690   -4.3930    7.4620 C   0  0  0  0  0  0  0  0  0  0  0  0
    3.2780   -3.4890    5.9760 C   0  0  0  0  0  0  0  0  0  0  0  0
   -0.3350   -1.0300   -2.3750 C   0  0  0  0  0  0  0  0  0  0  0  0
   -2.7050   -2.8100    4.5040 H   0  0  0  0  0  0  0  0  0  0  0  0
    1.1110   -1.2790    1.9710 H   0  0  0  0  0  0  0  0  0  0  0  0
   -1.9090    0.2520    0.9550 H   0  0  0  0  0  0  0  0  0  0  0  0
   -1.9070   -1.3010    0.0850 H   0  0  0  0  0  0  0  0  0  0  0  0
   -0.7150    1.2560    1.6310 H   0  0  0  0  0  0  0  0  0  0  0  0
   -1.3600   -3.7550    6.2390 H   0  0  0  0  0  0  0  0  0  0  0  0
    2.5970   -2.2120    3.6780 H   0  0  0  0  0  0  0  0  0  0  0  0
    1.8170    3.6930    0.7680 H   0  0  0  0  0  0  0  0  0  0  0  0
   -1.4510    2.5210    3.2760 H   0  0  0  0  0  0  0  0  0  0  0  0
    2.0280    5.7980    2.0430 H   0  0  0  0  0  0  0  0  0  0  0  0
   -1.2350    4.6240    4.5520 H   0  0  0  0  0  0  0  0  0  0  0  0
    0.1830   -2.1930   -0.6570 H   0  0  0  0  0  0  0  0  0  0  0  0
    1.4350   -1.0390   -1.1760 H   0  0  0  0  0  0  0  0  0  0  0  0
   -0.6150    0.3510   -3.7290 H   0  0  0  0  0  0  0  0  0  0  0  0
   -0.0070   -4.6510    7.8740 H   0  0  0  0  0  0  0  0  0  0  0  0
    1.5040   -3.7560    8.1660 H   0  0  0  0  0  0  0  0  0  0  0  0
    1.5420   -5.3040    7.2880 H   0  0  0  0  0  0  0  0  0  0  0  0
    4.0140   -3.0790    5.2850 H   0  0  0  0  0  0  0  0  0  0  0  0
    3.4320   -4.5630    6.0760 H   0  0  0  0  0  0  0  0  0  0  0  0
    3.3910   -3.0140    6.9510 H   0  0  0  0  0  0  0  0  0  0  0  0
   -1.4000   -1.2270   -2.2490 H   0  0  0  0  0  0  0  0  0  0  0  0
    0.0860   -1.7440   -3.0830 H   0  0  0  0  0  0  0  0  0  0  0  0
  1  2  1  0  0  0  0
  1  5  2  0  0  0  0
  1  9  1  0  0  0  0
  2  3  1  0  0  0  0
  2 16  2  0  0  0  0
  3  6  1  0  0  0  0
  3 29  1  0  0  0  0
  4  8  1  0  0  0  0
  4 10  1  0  0  0  0
  4 15  2  0  0  0  0
  5  7  1  0  0  0  0
  5 30  1  0  0  0  0
  6  7  2  0  0  0  0
  6 11  1  0  0  0  0
  7 12  1  0  0  0  0
  8  9  1  0  0  0  0
  8 24  1  0  0  0  0
  9 31  1  0  0  0  0
  9 32  1  0  0  0  0
 10 17  1  0  0  0  0
 10 33  1  0  0  0  0
 11 14  2  0  0  0  0
 11 34  1  0  0  0  0
 12 13  2  0  0  0  0
 12 35  1  0  0  0  0
 13 14  1  0  0  0  0
 13 27  1  0  0  0  0
 14 26  1  0  0  0  0
 17 20  2  0  0  0  0
 17 21  1  0  0  0  0
 18 19  1  0  0  0  0
 18 22  2  0  0  0  0
 18 23  1  0  0  0  0
 20 22  1  0  0  0  0
 20 36  1  0  0  0  0
 21 23  2  0  0  0  0
 21 37  1  0  0  0  0
 22 38  1  0  0  0  0
 23 39  1  0  0  0  0
 24 28  1  0  0  0  0
 24 40  1  0  0  0  0
 24 41  1  0  0  0  0
 25 28  1  0  0  0  0
 25 42  1  0  0  0  0
 26 43  1  0  0  0  0
 26 44  1  0  0  0  0
 26 45  1  0  0  0  0
 27 46  1  0  0  0  0
 27 47  1  0  0  0  0
 27 48  1  0  0  0  0
 28 49  1  0  0  0  0
 28 50  1  0  0  0  0
M  END
>  <$CLUSTER>
202

>  <INDEX>
131464

$$$$
