Life Chemicals F0566-0293
 OpenBabel04062209303D

 49 52  0  0  0  0  0  0  0  0999 V2000
   -0.9940   -1.2820    0.0970 C   0  0  0  0  0  0  0  0  0  0  0  0
   -5.9230   -7.4020    2.0270 S   0  0  0  0  0  0  0  0  0  0  0  0
   -1.7080   -2.2560    0.5630 N   0  0  0  0  0  0  0  0  0  0  0  0
   -0.0150   -0.5890    0.7950 N   0  0  0  0  0  0  0  0  0  0  0  0
   -1.1380   -0.6290   -1.5730 S   0  0  0  0  0  0  0  0  0  0  0  0
    0.1280    0.5670   -1.2450 C   0  0  0  0  0  0  0  0  0  0  0  0
    0.6060    0.4420    0.0580 C   0  0  0  0  0  0  0  0  0  0  0  0
   -2.7100   -2.8920   -0.3020 C   0  0  0  0  0  0  0  0  0  0  0  0
   -4.7910   -8.5890    2.3610 N   0  0  0  0  0  0  0  0  0  0  0  0
   -4.9420   -6.0900    1.3770 C   0  0  0  0  0  0  0  0  0  0  0  0
    0.6160    1.5250   -2.1280 C   0  0  0  0  0  0  0  0  0  0  0  0
   -6.4920   -6.9710    3.2930 O   0  0  0  0  0  0  0  0  0  0  0  0
   -6.7890   -7.9030    0.9750 O   0  0  0  0  0  0  0  0  0  0  0  0
    1.6090    1.3130    0.4930 C   0  0  0  0  0  0  0  0  0  0  0  0
   -3.4300   -3.9670    0.3620 C   0  0  0  0  0  0  0  0  0  0  0  0
   -2.8620   -2.5030   -1.4460 O   0  0  0  0  0  0  0  0  0  0  0  0
   -4.4070   -5.1260    2.2300 C   0  0  0  0  0  0  0  0  0  0  0  0
   -4.7360   -5.9950    0.0020 C   0  0  0  0  0  0  0  0  0  0  0  0
   -3.6610   -4.0650    1.7120 C   0  0  0  0  0  0  0  0  0  0  0  0
   -3.9920   -4.9350   -0.5210 C   0  0  0  0  0  0  0  0  0  0  0  0
    1.6180    2.3880   -1.6870 C   0  0  0  0  0  0  0  0  0  0  0  0
    0.3340   -0.8780    2.1810 C   0  0  0  0  0  0  0  0  0  0  0  0
    2.1120    2.2830   -0.3820 C   0  0  0  0  0  0  0  0  0  0  0  0
    2.0530    3.2880   -2.5710 F   0  0  0  0  0  0  0  0  0  0  0  0
   -4.1270   -9.2610    1.2130 C   0  0  0  0  0  0  0  0  0  0  0  0
   -3.8380   -8.3520    3.4770 C   0  0  0  0  0  0  0  0  0  0  0  0
   -0.4590    0.0070    3.1310 C   0  0  0  0  0  0  0  0  0  0  0  0
   -2.7920   -9.4880    3.2480 C   0  0  0  0  0  0  0  0  0  0  0  0
   -3.2220  -10.2390    2.0050 C   0  0  0  0  0  0  0  0  0  0  0  0
    0.2270    1.5980   -3.1330 H   0  0  0  0  0  0  0  0  0  0  0  0
    1.9940    1.2380    1.4990 H   0  0  0  0  0  0  0  0  0  0  0  0
   -4.5700   -5.2000    3.2950 H   0  0  0  0  0  0  0  0  0  0  0  0
   -5.1520   -6.7410   -0.6590 H   0  0  0  0  0  0  0  0  0  0  0  0
   -3.2620   -3.3150    2.3790 H   0  0  0  0  0  0  0  0  0  0  0  0
   -3.8430   -4.8490   -1.5870 H   0  0  0  0  0  0  0  0  0  0  0  0
    1.3990   -0.6960    2.3270 H   0  0  0  0  0  0  0  0  0  0  0  0
    0.1110   -1.9230    2.3960 H   0  0  0  0  0  0  0  0  0  0  0  0
    2.8880    2.9560   -0.0470 H   0  0  0  0  0  0  0  0  0  0  0  0
   -3.5470   -8.5630    0.6090 H   0  0  0  0  0  0  0  0  0  0  0  0
   -4.8400   -9.7860    0.5770 H   0  0  0  0  0  0  0  0  0  0  0  0
   -4.3280   -8.4520    4.4460 H   0  0  0  0  0  0  0  0  0  0  0  0
   -3.3770   -7.3670    3.4030 H   0  0  0  0  0  0  0  0  0  0  0  0
   -0.2400    1.0540    2.9210 H   0  0  0  0  0  0  0  0  0  0  0  0
   -0.1810   -0.2230    4.1590 H   0  0  0  0  0  0  0  0  0  0  0  0
   -1.5250   -0.1760    2.9940 H   0  0  0  0  0  0  0  0  0  0  0  0
   -2.7760  -10.1610    4.1050 H   0  0  0  0  0  0  0  0  0  0  0  0
   -1.8000   -9.0600    3.1030 H   0  0  0  0  0  0  0  0  0  0  0  0
   -2.3520  -10.5180    1.4100 H   0  0  0  0  0  0  0  0  0  0  0  0
   -3.7790  -11.1360    2.2770 H   0  0  0  0  0  0  0  0  0  0  0  0
  1  3  2  0  0  0  0
  1  4  1  0  0  0  0
  1  5  1  0  0  0  0
  2  9  1  0  0  0  0
  2 10  1  0  0  0  0
  2 12  2  0  0  0  0
  2 13  2  0  0  0  0
  3  8  1  0  0  0  0
  4  7  1  0  0  0  0
  4 22  1  0  0  0  0
  5  6  1  0  0  0  0
  6  7  2  0  0  0  0
  6 11  1  0  0  0  0
  7 14  1  0  0  0  0
  8 15  1  0  0  0  0
  8 16  2  0  0  0  0
  9 25  1  0  0  0  0
  9 26  1  0  0  0  0
 10 17  2  0  0  0  0
 10 18  1  0  0  0  0
 11 21  2  0  0  0  0
 11 30  1  0  0  0  0
 14 23  2  0  0  0  0
 14 31  1  0  0  0  0
 15 19  2  0  0  0  0
 15 20  1  0  0  0  0
 17 19  1  0  0  0  0
 17 32  1  0  0  0  0
 18 20  2  0  0  0  0
 18 33  1  0  0  0  0
 19 34  1  0  0  0  0
 20 35  1  0  0  0  0
 21 23  1  0  0  0  0
 21 24  1  0  0  0  0
 22 27  1  0  0  0  0
 22 36  1  0  0  0  0
 22 37  1  0  0  0  0
 23 38  1  0  0  0  0
 25 29  1  0  0  0  0
 25 39  1  0  0  0  0
 25 40  1  0  0  0  0
 26 28  1  0  0  0  0
 26 41  1  0  0  0  0
 26 42  1  0  0  0  0
 27 43  1  0  0  0  0
 27 44  1  0  0  0  0
 27 45  1  0  0  0  0
 28 29  1  0  0  0  0
 28 46  1  0  0  0  0
 28 47  1  0  0  0  0
 29 48  1  0  0  0  0
 29 49  1  0  0  0  0
M  END
>  <$CLUSTER>
458

>  <INDEX>
274605

$$$$
