EMC Microcollections 001A3586
 OpenBabel04062209303D

 52 55  0  0  0  0  0  0  0  0999 V2000
    1.1310    0.8940   -1.4770 N   0  0  0  0  0  0  0  0  0  0  0  0
   -0.1910   -0.2350   -0.0700 C   0  0  0  0  0  0  0  0  0  0  0  0
    0.6960   -0.2060   -2.1610 C   0  0  0  0  0  0  0  0  0  0  0  0
    0.6060    0.8980   -0.2070 C   0  0  0  0  0  0  0  0  0  0  0  0
    0.9810   -0.6650   -3.5140 C   0  0  0  0  0  0  0  0  0  0  0  0
    2.1440   -0.2810   -4.1540 N   0  0  0  0  0  0  0  0  0  0  0  0
   -0.1220   -0.9230   -1.3200 C   0  0  0  0  0  0  0  0  0  0  0  0
    2.1760   -0.8110   -5.3560 C   0  0  0  0  0  0  0  0  0  0  0  0
    0.8370   -1.7880   -5.7920 S   0  0  0  0  0  0  0  0  0  0  0  0
   -0.9280   -0.5960    1.1380 C   0  0  0  0  0  0  0  0  0  0  0  0
    0.1460   -1.4860   -4.2500 C   0  0  0  0  0  0  0  0  0  0  0  0
    3.3120   -0.5810   -6.3020 C   0  0  0  0  0  0  0  0  0  0  0  0
    2.0160    1.9250   -2.0500 C   0  0  0  0  0  0  0  0  0  0  0  0
    5.4600    0.5120   -6.6950 N   0  0  0  0  0  0  0  0  0  0  0  0
    4.3800    0.2340   -5.9230 C   0  0  0  0  0  0  0  0  0  0  0  0
   -0.9050    0.0860    2.1610 O   0  0  0  0  0  0  0  0  0  0  0  0
    3.3920   -1.1410   -7.5830 C   0  0  0  0  0  0  0  0  0  0  0  0
   -1.6580   -1.7620    1.0560 N   0  0  0  0  0  0  0  0  0  0  0  0
    5.4840   -0.0530   -7.9190 C   0  0  0  0  0  0  0  0  0  0  0  0
    3.4870    1.6370   -1.8000 C   0  0  0  0  0  0  0  0  0  0  0  0
    0.9280    1.9950    0.7430 C   0  0  0  0  0  0  0  0  0  0  0  0
    6.1910    1.0930   -1.3220 C   0  0  0  0  0  0  0  0  0  0  0  0
    4.4860   -0.8770   -8.4050 C   0  0  0  0  0  0  0  0  0  0  0  0
    4.2690    1.0380   -2.7910 C   0  0  0  0  0  0  0  0  0  0  0  0
    4.0580    1.9370   -0.5560 C   0  0  0  0  0  0  0  0  0  0  0  0
    5.4100    1.6720   -0.3220 C   0  0  0  0  0  0  0  0  0  0  0  0
    5.6210    0.7730   -2.5550 C   0  0  0  0  0  0  0  0  0  0  0  0
    7.5260    0.7770   -1.2090 O   0  0  0  0  0  0  0  0  0  0  0  0
    6.7130    0.2580   -8.8040 C   0  0  0  0  0  0  0  0  0  0  0  0
    8.1560    1.0770    0.0310 C   0  0  0  0  0  0  0  0  0  0  0  0
   -0.6260   -1.8470   -1.5630 H   0  0  0  0  0  0  0  0  0  0  0  0
   -0.8000   -1.8780   -3.9060 H   0  0  0  0  0  0  0  0  0  0  0  0
    1.7670    2.8870   -1.6020 H   0  0  0  0  0  0  0  0  0  0  0  0
    1.8470    1.9710   -3.1260 H   0  0  0  0  0  0  0  0  0  0  0  0
    4.3440    0.6780   -4.9390 H   0  0  0  0  0  0  0  0  0  0  0  0
    2.5990   -1.7830   -7.9370 H   0  0  0  0  0  0  0  0  0  0  0  0
   -2.1950   -2.0790    1.8510 H   0  0  0  0  0  0  0  0  0  0  0  0
   -1.6560   -2.3000    0.2010 H   0  0  0  0  0  0  0  0  0  0  0  0
    1.5950    2.7090    0.2600 H   0  0  0  0  0  0  0  0  0  0  0  0
    1.4160    1.5800    1.6250 H   0  0  0  0  0  0  0  0  0  0  0  0
    0.0090    2.5000    1.0400 H   0  0  0  0  0  0  0  0  0  0  0  0
    4.5520   -1.3040   -9.3950 H   0  0  0  0  0  0  0  0  0  0  0  0
    3.8280    0.7790   -3.7420 H   0  0  0  0  0  0  0  0  0  0  0  0
    3.4520    2.3740    0.2240 H   0  0  0  0  0  0  0  0  0  0  0  0
    5.8500    1.9160    0.6340 H   0  0  0  0  0  0  0  0  0  0  0  0
    6.2250    0.3200   -3.3270 H   0  0  0  0  0  0  0  0  0  0  0  0
    7.3920    0.9180   -8.2640 H   0  0  0  0  0  0  0  0  0  0  0  0
    6.3860    0.7460   -9.7220 H   0  0  0  0  0  0  0  0  0  0  0  0
    7.2280   -0.6710   -9.0500 H   0  0  0  0  0  0  0  0  0  0  0  0
    9.2040    0.7790   -0.0120 H   0  0  0  0  0  0  0  0  0  0  0  0
    7.6570    0.5340    0.8330 H   0  0  0  0  0  0  0  0  0  0  0  0
    8.0900    2.1480    0.2220 H   0  0  0  0  0  0  0  0  0  0  0  0
  1  3  1  0  0  0  0
  1  4  1  0  0  0  0
  1 13  1  0  0  0  0
  2  4  2  0  0  0  0
  2  7  1  0  0  0  0
  2 10  1  0  0  0  0
  3  5  1  0  0  0  0
  3  7  2  0  0  0  0
  4 21  1  0  0  0  0
  5  6  1  0  0  0  0
  5 11  2  0  0  0  0
  6  8  2  0  0  0  0
  7 31  1  0  0  0  0
  8  9  1  0  0  0  0
  8 12  1  0  0  0  0
  9 11  1  0  0  0  0
 10 16  2  0  0  0  0
 10 18  1  0  0  0  0
 11 32  1  0  0  0  0
 12 15  2  0  0  0  0
 12 17  1  0  0  0  0
 13 20  1  0  0  0  0
 13 33  1  0  0  0  0
 13 34  1  0  0  0  0
 14 15  1  0  0  0  0
 14 19  2  0  0  0  0
 15 35  1  0  0  0  0
 17 23  2  0  0  0  0
 17 36  1  0  0  0  0
 18 37  1  0  0  0  0
 18 38  1  0  0  0  0
 19 23  1  0  0  0  0
 19 29  1  0  0  0  0
 20 24  1  0  0  0  0
 20 25  2  0  0  0  0
 21 39  1  0  0  0  0
 21 40  1  0  0  0  0
 21 41  1  0  0  0  0
 22 26  2  0  0  0  0
 22 27  1  0  0  0  0
 22 28  1  0  0  0  0
 23 42  1  0  0  0  0
 24 27  2  0  0  0  0
 24 43  1  0  0  0  0
 25 26  1  0  0  0  0
 25 44  1  0  0  0  0
 26 45  1  0  0  0  0
 27 46  1  0  0  0  0
 28 30  1  0  0  0  0
 29 47  1  0  0  0  0
 29 48  1  0  0  0  0
 29 49  1  0  0  0  0
 30 50  1  0  0  0  0
 30 51  1  0  0  0  0
 30 52  1  0  0  0  0
M  END
>  <$CLUSTER>
345

>  <INDEX>
215862

$$$$
