Chem T&I AMSACS-01505
 OpenBabel04062209303D

 37 39  0  0  0  0  0  0  0  0999 V2000
    1.6950   -0.6790    0.4260 S   0  0  0  0  0  0  0  0  0  0  0  0
    0.4640    0.4420    0.7500 N   0  0  0  0  0  0  0  0  0  0  0  0
   -0.7330    0.4970    0.0200 C   0  0  0  0  0  0  0  0  0  0  0  0
   -1.6410    1.4520    0.2580 N   0  0  0  0  0  0  0  0  0  0  0  0
   -2.6250    1.1820   -0.6140 N   0  0  0  0  0  0  0  0  0  0  0  0
   -1.1560   -0.3780   -1.0090 C   0  0  0  0  0  0  0  0  0  0  0  0
    2.8580   -0.2250    1.6890 C   0  0  0  0  0  0  0  0  0  0  0  0
    2.8070   -0.8580    2.9310 C   0  0  0  0  0  0  0  0  0  0  0  0
   -2.3850    0.0950   -1.3970 C   0  0  0  0  0  0  0  0  0  0  0  0
    3.7420   -0.5190    3.9090 C   0  0  0  0  0  0  0  0  0  0  0  0
    1.2240   -2.0160    0.7310 O   0  0  0  0  0  0  0  0  0  0  0  0
    2.3000   -0.3710   -0.8550 O   0  0  0  0  0  0  0  0  0  0  0  0
    4.7230    0.4360    3.6400 C   0  0  0  0  0  0  0  0  0  0  0  0
    3.8430    0.7230    1.4060 C   0  0  0  0  0  0  0  0  0  0  0  0
   -3.8050    2.0260   -0.6490 C   0  0  0  0  0  0  0  0  0  0  0  0
    4.7740    1.0550    2.3910 C   0  0  0  0  0  0  0  0  0  0  0  0
    3.7630   -1.0640    5.1260 F   0  0  0  0  0  0  0  0  0  0  0  0
   -3.5960    3.2710   -1.4930 C   0  0  0  0  0  0  0  0  0  0  0  0
   -3.1500    5.5440   -3.0610 C   0  0  0  0  0  0  0  0  0  0  0  0
    5.5780    0.7020    4.6290 F   0  0  0  0  0  0  0  0  0  0  0  0
   -2.8900    6.9260   -4.0210 Cl  0  0  0  0  0  0  0  0  0  0  0  0
   -2.8070    5.5510   -1.7100 C   0  0  0  0  0  0  0  0  0  0  0  0
   -3.7080    4.4010   -3.6320 C   0  0  0  0  0  0  0  0  0  0  0  0
   -3.0250    4.4150   -0.9280 C   0  0  0  0  0  0  0  0  0  0  0  0
   -3.9270    3.2650   -2.8510 C   0  0  0  0  0  0  0  0  0  0  0  0
    0.5990    1.1010    1.5040 H   0  0  0  0  0  0  0  0  0  0  0  0
   -0.6270   -1.2330   -1.4030 H   0  0  0  0  0  0  0  0  0  0  0  0
    2.0510   -1.6030    3.1330 H   0  0  0  0  0  0  0  0  0  0  0  0
   -3.0280   -0.3110   -2.1640 H   0  0  0  0  0  0  0  0  0  0  0  0
    3.8840    1.1940    0.4350 H   0  0  0  0  0  0  0  0  0  0  0  0
   -4.0500    2.3290    0.3690 H   0  0  0  0  0  0  0  0  0  0  0  0
   -4.6330    1.4540   -1.0670 H   0  0  0  0  0  0  0  0  0  0  0  0
    5.5360    1.7930    2.1860 H   0  0  0  0  0  0  0  0  0  0  0  0
   -2.3720    6.4350   -1.2680 H   0  0  0  0  0  0  0  0  0  0  0  0
   -3.9710    4.3950   -4.6790 H   0  0  0  0  0  0  0  0  0  0  0  0
   -2.7520    4.4200    0.1170 H   0  0  0  0  0  0  0  0  0  0  0  0
   -4.3530    2.3790   -3.2970 H   0  0  0  0  0  0  0  0  0  0  0  0
  1  2  1  0  0  0  0
  1  7  1  0  0  0  0
  1 11  2  0  0  0  0
  1 12  2  0  0  0  0
  2  3  1  0  0  0  0
  2 26  1  0  0  0  0
  3  4  2  0  0  0  0
  3  6  1  0  0  0  0
  4  5  1  0  0  0  0
  5  9  1  0  0  0  0
  5 15  1  0  0  0  0
  6  9  2  0  0  0  0
  6 27  1  0  0  0  0
  7  8  1  0  0  0  0
  7 14  2  0  0  0  0
  8 10  2  0  0  0  0
  8 28  1  0  0  0  0
  9 29  1  0  0  0  0
 10 13  1  0  0  0  0
 10 17  1  0  0  0  0
 13 16  2  0  0  0  0
 13 20  1  0  0  0  0
 14 16  1  0  0  0  0
 14 30  1  0  0  0  0
 15 18  1  0  0  0  0
 15 31  1  0  0  0  0
 15 32  1  0  0  0  0
 16 33  1  0  0  0  0
 18 24  2  0  0  0  0
 18 25  1  0  0  0  0
 19 21  1  0  0  0  0
 19 22  2  0  0  0  0
 19 23  1  0  0  0  0
 22 24  1  0  0  0  0
 22 34  1  0  0  0  0
 23 25  2  0  0  0  0
 23 35  1  0  0  0  0
 24 36  1  0  0  0  0
 25 37  1  0  0  0  0
M  END
>  <$CLUSTER>
175

>  <INDEX>
513086

$$$$
