Chem T&I ARAK0118211
 OpenBabel04062209303D

 50 52  0  0  0  0  0  0  0  0999 V2000
    4.1050   -1.4500   -0.6190 S   0  0  0  0  0  0  0  0  0  0  0  0
    4.6630   -1.4540    0.9590 N   0  0  0  0  0  0  0  0  0  0  0  0
    2.4480   -0.8760   -0.4530 C   0  0  0  0  0  0  0  0  0  0  0  0
    4.0720   -2.8290   -1.0750 O   0  0  0  0  0  0  0  0  0  0  0  0
    4.8720   -0.4600   -1.3540 O   0  0  0  0  0  0  0  0  0  0  0  0
   -1.5220    0.4830   -0.1640 N   0  0  0  0  0  0  0  0  0  0  0  0
    4.8730   -0.1420    1.6270 C   0  0  0  0  0  0  0  0  0  0  0  0
    4.0950   -2.4560    1.8990 C   0  0  0  0  0  0  0  0  0  0  0  0
   -1.9280    0.7850    1.0330 C   0  0  0  0  0  0  0  0  0  0  0  0
    1.4120   -1.7880   -0.2480 C   0  0  0  0  0  0  0  0  0  0  0  0
    2.1670    0.4860   -0.5660 C   0  0  0  0  0  0  0  0  0  0  0  0
   -0.1940    0.0300   -0.2480 C   0  0  0  0  0  0  0  0  0  0  0  0
   -3.3230    1.2810    1.2660 C   0  0  0  0  0  0  0  0  0  0  0  0
   -5.8830    2.2060    1.8000 C   0  0  0  0  0  0  0  0  0  0  0  0
    0.8480    0.9360   -0.4690 C   0  0  0  0  0  0  0  0  0  0  0  0
    0.0940   -1.3360   -0.1500 C   0  0  0  0  0  0  0  0  0  0  0  0
    5.7200   -0.2570    2.8910 C   0  0  0  0  0  0  0  0  0  0  0  0
    4.9270   -2.6100    3.1670 C   0  0  0  0  0  0  0  0  0  0  0  0
   -4.2180    1.4330    0.2250 C   0  0  0  0  0  0  0  0  0  0  0  0
   -3.6810    1.5830    2.5830 C   0  0  0  0  0  0  0  0  0  0  0  0
   -5.5080    1.8990    0.4910 C   0  0  0  0  0  0  0  0  0  0  0  0
   -4.9710    2.0480    2.8450 C   0  0  0  0  0  0  0  0  0  0  0  0
    5.1390   -1.2720    3.8780 C   0  0  1  0  0  0  0  0  0  0  0  0
   -7.1820    2.6560    1.9350 O   0  0  0  0  0  0  0  0  0  0  0  0
   -7.6170    2.9840    3.2500 C   0  0  0  0  0  0  0  0  0  0  0  0
    6.0440   -1.4340    5.0970 C   0  0  0  0  0  0  0  0  0  0  0  0
    3.9010    0.2730    1.8940 H   0  0  0  0  0  0  0  0  0  0  0  0
    5.3750    0.5280    0.9300 H   0  0  0  0  0  0  0  0  0  0  0  0
    4.0470   -3.4210    1.3940 H   0  0  0  0  0  0  0  0  0  0  0  0
    3.0890   -2.1420    2.1780 H   0  0  0  0  0  0  0  0  0  0  0  0
   -1.2530    0.6770    1.8690 H   0  0  0  0  0  0  0  0  0  0  0  0
    1.6290   -2.8430   -0.1650 H   0  0  0  0  0  0  0  0  0  0  0  0
    2.9680    1.1920   -0.7280 H   0  0  0  0  0  0  0  0  0  0  0  0
    0.6320    1.9900   -0.5650 H   0  0  0  0  0  0  0  0  0  0  0  0
   -0.7070   -2.0440    0.0020 H   0  0  0  0  0  0  0  0  0  0  0  0
    5.7650    0.7190    3.3750 H   0  0  0  0  0  0  0  0  0  0  0  0
    6.7260   -0.5720    2.6130 H   0  0  0  0  0  0  0  0  0  0  0  0
    5.8990   -3.0260    2.9020 H   0  0  0  0  0  0  0  0  0  0  0  0
    4.4130   -3.2910    3.8450 H   0  0  0  0  0  0  0  0  0  0  0  0
   -3.9230    1.1940   -0.7860 H   0  0  0  0  0  0  0  0  0  0  0  0
   -2.9700    1.4580    3.3860 H   0  0  0  0  0  0  0  0  0  0  0  0
   -6.2150    2.0220   -0.3160 H   0  0  0  0  0  0  0  0  0  0  0  0
   -5.2640    2.2860    3.8570 H   0  0  0  0  0  0  0  0  0  0  0  0
    4.1770   -0.9060    4.2370 H   0  0  0  0  0  0  0  0  0  0  0  0
   -8.6520    3.3230    3.2160 H   0  0  0  0  0  0  0  0  0  0  0  0
   -6.9880    3.7770    3.6530 H   0  0  0  0  0  0  0  0  0  0  0  0
   -7.5440    2.1030    3.8870 H   0  0  0  0  0  0  0  0  0  0  0  0
    7.0200   -1.8000    4.7790 H   0  0  0  0  0  0  0  0  0  0  0  0
    5.5970   -2.1470    5.7900 H   0  0  0  0  0  0  0  0  0  0  0  0
    6.1610   -0.4710    5.5930 H   0  0  0  0  0  0  0  0  0  0  0  0
  1  2  1  0  0  0  0
  1  3  1  0  0  0  0
  1  4  2  0  0  0  0
  1  5  2  0  0  0  0
  2  7  1  0  0  0  0
  2  8  1  0  0  0  0
  3 10  1  0  0  0  0
  3 11  2  0  0  0  0
  6  9  2  0  0  0  0
  6 12  1  0  0  0  0
  7 17  1  0  0  0  0
  7 27  1  0  0  0  0
  7 28  1  0  0  0  0
  8 18  1  0  0  0  0
  8 29  1  0  0  0  0
  8 30  1  0  0  0  0
  9 13  1  0  0  0  0
  9 31  1  0  0  0  0
 10 16  2  0  0  0  0
 10 32  1  0  0  0  0
 11 15  1  0  0  0  0
 11 33  1  0  0  0  0
 12 15  2  0  0  0  0
 12 16  1  0  0  0  0
 13 19  2  0  0  0  0
 13 20  1  0  0  0  0
 14 21  2  0  0  0  0
 14 22  1  0  0  0  0
 14 24  1  0  0  0  0
 15 34  1  0  0  0  0
 16 35  1  0  0  0  0
 17 23  1  0  0  0  0
 17 36  1  0  0  0  0
 17 37  1  0  0  0  0
 18 23  1  0  0  0  0
 18 38  1  0  0  0  0
 18 39  1  0  0  0  0
 19 21  1  0  0  0  0
 19 40  1  0  0  0  0
 20 22  2  0  0  0  0
 20 41  1  0  0  0  0
 21 42  1  0  0  0  0
 22 43  1  0  0  0  0
 23 26  1  0  0  0  0
 23 44  1  1  0  0  0
 24 25  1  0  0  0  0
 25 45  1  0  0  0  0
 25 46  1  0  0  0  0
 25 47  1  0  0  0  0
 26 48  1  0  0  0  0
 26 49  1  0  0  0  0
 26 50  1  0  0  0  0
M  END
>  <$CLUSTER>
642

>  <INDEX>
536545

$$$$
