Chembridge 7634772
 OpenBabel04062209303D

 48 52  0  0  0  0  0  0  0  0999 V2000
   -0.7500    0.7630    1.4090 C   0  0  0  0  0  0  0  0  0  0  0  0
    0.0270    0.4290    0.3020 N   0  0  0  0  0  0  0  0  0  0  0  0
    0.7010    1.6030    0.0030 C   0  0  0  0  0  0  0  0  0  0  0  0
   -0.5320    2.0240    1.7330 N   0  0  0  0  0  0  0  0  0  0  0  0
   -3.0090    0.0170    1.9190 N   0  0  0  0  0  0  0  0  0  0  0  0
    0.3750    2.5460    0.8560 N   0  0  0  0  0  0  0  0  0  0  0  0
   -4.9860   -0.3550    0.9660 N   0  0  0  0  0  0  0  0  0  0  0  0
   -3.7270   -0.7280    1.0190 C   0  0  0  0  0  0  0  0  0  0  0  0
   -1.5930   -0.1610    2.2210 C   0  0  0  0  0  0  0  0  0  0  0  0
   -3.8710    0.9200    2.4960 C   0  0  0  0  0  0  0  0  0  0  0  0
    1.6810    1.8520   -1.4110 S   0  0  0  0  0  0  0  0  0  0  0  0
   -5.0950    0.6690    1.8780 C   0  0  0  0  0  0  0  0  0  0  0  0
    0.1040   -0.8280   -0.3530 C   0  0  0  0  0  0  0  0  0  0  0  0
    3.2280    3.6970   -0.0320 C   0  0  0  0  0  0  0  0  0  0  0  0
    2.2280    3.5570   -1.1770 C   0  0  0  0  0  0  0  0  0  0  0  0
    2.7850    3.9730    1.2580 C   0  0  0  0  0  0  0  0  0  0  0  0
    1.4770    4.1480    1.5020 F   0  0  0  0  0  0  0  0  0  0  0  0
   -3.7030    1.9150    3.4660 C   0  0  0  0  0  0  0  0  0  0  0  0
    4.5950    3.5100   -0.2560 C   0  0  0  0  0  0  0  0  0  0  0  0
   -6.2170    1.4370    2.2330 C   0  0  0  0  0  0  0  0  0  0  0  0
   -1.0630   -1.5530   -0.6210 C   0  0  0  0  0  0  0  0  0  0  0  0
    1.3470   -1.3520   -0.7300 C   0  0  0  0  0  0  0  0  0  0  0  0
    3.6800    4.0860    2.3180 C   0  0  0  0  0  0  0  0  0  0  0  0
   -4.8310    2.6690    3.8060 C   0  0  0  0  0  0  0  0  0  0  0  0
    5.5000    3.6210    0.8020 C   0  0  0  0  0  0  0  0  0  0  0  0
   -6.0670    2.4370    3.2010 C   0  0  0  0  0  0  0  0  0  0  0  0
    5.0440    3.9090    2.0890 C   0  0  0  0  0  0  0  0  0  0  0  0
    1.4170   -2.5910   -1.3710 C   0  0  0  0  0  0  0  0  0  0  0  0
   -0.9840   -2.7900   -1.2650 C   0  0  0  0  0  0  0  0  0  0  0  0
    0.2540   -3.3090   -1.6400 C   0  0  0  0  0  0  0  0  0  0  0  0
   -3.3080   -1.5260    0.4250 H   0  0  0  0  0  0  0  0  0  0  0  0
   -1.4260    0.0420    3.2790 H   0  0  0  0  0  0  0  0  0  0  0  0
   -1.3080   -1.1900    2.0000 H   0  0  0  0  0  0  0  0  0  0  0  0
    1.3580    4.1770   -0.9590 H   0  0  0  0  0  0  0  0  0  0  0  0
    2.6990    3.9030   -2.0970 H   0  0  0  0  0  0  0  0  0  0  0  0
   -2.7450    2.0930    3.9310 H   0  0  0  0  0  0  0  0  0  0  0  0
    4.9520    3.2790   -1.2490 H   0  0  0  0  0  0  0  0  0  0  0  0
   -7.1760    1.2590    1.7680 H   0  0  0  0  0  0  0  0  0  0  0  0
   -2.0240   -1.1560   -0.3300 H   0  0  0  0  0  0  0  0  0  0  0  0
    2.2510   -0.7980   -0.5250 H   0  0  0  0  0  0  0  0  0  0  0  0
    3.3200    4.3090    3.3120 H   0  0  0  0  0  0  0  0  0  0  0  0
   -4.7440    3.4460    4.5510 H   0  0  0  0  0  0  0  0  0  0  0  0
    6.5560    3.4830    0.6230 H   0  0  0  0  0  0  0  0  0  0  0  0
   -6.9190    3.0370    3.4830 H   0  0  0  0  0  0  0  0  0  0  0  0
    5.7460    3.9950    2.9060 H   0  0  0  0  0  0  0  0  0  0  0  0
    2.3770   -2.9940   -1.6590 H   0  0  0  0  0  0  0  0  0  0  0  0
   -1.8860   -3.3470   -1.4730 H   0  0  0  0  0  0  0  0  0  0  0  0
    0.3110   -4.2660   -2.1380 H   0  0  0  0  0  0  0  0  0  0  0  0
  1  2  1  0  0  0  0
  1  4  2  0  0  0  0
  1  9  1  0  0  0  0
  2  3  1  0  0  0  0
  2 13  1  0  0  0  0
  3  6  2  0  0  0  0
  3 11  1  0  0  0  0
  4  6  1  0  0  0  0
  5  8  1  0  0  0  0
  5  9  1  0  0  0  0
  5 10  1  0  0  0  0
  7  8  2  0  0  0  0
  7 12  1  0  0  0  0
  8 31  1  0  0  0  0
  9 32  1  0  0  0  0
  9 33  1  0  0  0  0
 10 12  2  0  0  0  0
 10 18  1  0  0  0  0
 11 15  1  0  0  0  0
 12 20  1  0  0  0  0
 13 21  1  0  0  0  0
 13 22  2  0  0  0  0
 14 15  1  0  0  0  0
 14 16  2  0  0  0  0
 14 19  1  0  0  0  0
 15 34  1  0  0  0  0
 15 35  1  0  0  0  0
 16 17  1  0  0  0  0
 16 23  1  0  0  0  0
 18 24  2  0  0  0  0
 18 36  1  0  0  0  0
 19 25  2  0  0  0  0
 19 37  1  0  0  0  0
 20 26  2  0  0  0  0
 20 38  1  0  0  0  0
 21 29  2  0  0  0  0
 21 39  1  0  0  0  0
 22 28  1  0  0  0  0
 22 40  1  0  0  0  0
 23 27  2  0  0  0  0
 23 41  1  0  0  0  0
 24 26  1  0  0  0  0
 24 42  1  0  0  0  0
 25 27  1  0  0  0  0
 25 43  1  0  0  0  0
 26 44  1  0  0  0  0
 27 45  1  0  0  0  0
 28 30  2  0  0  0  0
 28 46  1  0  0  0  0
 29 30  1  0  0  0  0
 29 47  1  0  0  0  0
 30 48  1  0  0  0  0
M  END
>  <$CLUSTER>
126

>  <INDEX>
81402

$$$$
