Chem T&I IVK/0000805
 OpenBabel04062209303D

 52 54  0  0  0  0  0  0  0  0999 V2000
   -1.7270   -0.1590    0.3230 S   0  0  0  0  0  0  0  0  0  0  0  0
   -2.1450    1.4000    0.7670 N   0  0  0  0  0  0  0  0  0  0  0  0
    0.0040   -0.0300   -0.0060 C   0  0  0  0  0  0  0  0  0  0  0  0
   -2.2460    4.2800    1.4510 N   0  3  0  0  0  0  0  0  0  0  0  0
    0.4420    0.2930   -1.2940 C   0  0  0  0  0  0  0  0  0  0  0  0
   -2.4130   -0.4580   -0.9230 O   0  0  0  0  0  0  0  0  0  0  0  0
   -1.9210   -1.0130    1.4810 O   0  0  0  0  0  0  0  0  0  0  0  0
   -1.6360    1.9140    2.0670 C   0  0  0  0  0  0  0  0  0  0  0  0
   -2.1190    2.4550   -0.2810 C   0  0  0  0  0  0  0  0  0  0  0  0
    1.8110    0.3660   -1.5580 C   0  0  0  0  0  0  0  0  0  0  0  0
    0.9250   -0.2930    1.0120 C   0  0  0  0  0  0  0  0  0  0  0  0
    2.7330    0.1110   -0.5420 C   0  0  0  0  0  0  0  0  0  0  0  0
    2.2920   -0.2180    0.7410 C   0  0  0  0  0  0  0  0  0  0  0  0
   -2.8160    3.7670    0.1450 C   0  0  0  0  0  0  0  0  0  0  0  0
   -2.3260    3.2190    2.5290 C   0  0  0  0  0  0  0  0  0  0  0  0
   -2.8790    5.5700    1.8800 C   0  0  0  0  0  0  0  0  0  0  0  0
   -2.4760    6.7320    0.9850 C   0  0  0  0  0  0  0  0  0  0  0  0
   -1.6920    8.8170   -0.7040 C   0  0  0  0  0  0  0  0  0  0  0  0
   -1.3270    7.4730    1.2700 C   0  0  0  0  0  0  0  0  0  0  0  0
   -3.2170    7.0220   -0.1660 C   0  0  0  0  0  0  0  0  0  0  0  0
   -0.9410    8.5190    0.4310 C   0  0  0  0  0  0  0  0  0  0  0  0
   -2.8280    8.0680   -1.0030 C   0  0  0  0  0  0  0  0  0  0  0  0
    2.2910    0.7160   -2.9280 C   0  0  0  0  0  0  0  0  0  0  0  0
    4.1980    0.1920   -0.8310 C   0  0  0  0  0  0  0  0  0  0  0  0
   -1.2820    9.9390   -1.6010 C   0  0  0  0  0  0  0  0  0  0  0  0
   -1.2690    4.4850    1.2960 H   0  0  0  0  0  0  0  0  0  0  0  0
   -0.2740    0.4850   -2.0790 H   0  0  0  0  0  0  0  0  0  0  0  0
   -0.5680    2.1060    1.9670 H   0  0  0  0  0  0  0  0  0  0  0  0
   -1.7990    1.1500    2.8270 H   0  0  0  0  0  0  0  0  0  0  0  0
   -2.6210    2.0710   -1.1690 H   0  0  0  0  0  0  0  0  0  0  0  0
   -1.0790    2.6790   -0.5190 H   0  0  0  0  0  0  0  0  0  0  0  0
    0.5810   -0.5530    2.0020 H   0  0  0  0  0  0  0  0  0  0  0  0
    3.0090   -0.4150    1.5240 H   0  0  0  0  0  0  0  0  0  0  0  0
   -2.6660    4.5190   -0.6300 H   0  0  0  0  0  0  0  0  0  0  0  0
   -3.8830    3.5810    0.2690 H   0  0  0  0  0  0  0  0  0  0  0  0
   -3.3730    3.0110    2.7490 H   0  0  0  0  0  0  0  0  0  0  0  0
   -1.8320    3.5860    3.4290 H   0  0  0  0  0  0  0  0  0  0  0  0
   -2.5700    5.7900    2.9020 H   0  0  0  0  0  0  0  0  0  0  0  0
   -3.9630    5.4580    1.8440 H   0  0  0  0  0  0  0  0  0  0  0  0
   -0.7360    7.2360    2.1420 H   0  0  0  0  0  0  0  0  0  0  0  0
   -4.0910    6.4350   -0.4070 H   0  0  0  0  0  0  0  0  0  0  0  0
   -0.0590    9.0980    0.6620 H   0  0  0  0  0  0  0  0  0  0  0  0
   -3.4080    8.2980   -1.8840 H   0  0  0  0  0  0  0  0  0  0  0  0
    1.4350    0.8790   -3.5820 H   0  0  0  0  0  0  0  0  0  0  0  0
    2.8970   -0.1000   -3.3200 H   0  0  0  0  0  0  0  0  0  0  0  0
    2.8910    1.6250   -2.8820 H   0  0  0  0  0  0  0  0  0  0  0  0
    4.3480    0.4590   -1.8770 H   0  0  0  0  0  0  0  0  0  0  0  0
    4.6610   -0.7750   -0.6330 H   0  0  0  0  0  0  0  0  0  0  0  0
    4.6530    0.9500   -0.1940 H   0  0  0  0  0  0  0  0  0  0  0  0
   -0.3780   10.4050   -1.2100 H   0  0  0  0  0  0  0  0  0  0  0  0
   -2.0820   10.6780   -1.6470 H   0  0  0  0  0  0  0  0  0  0  0  0
   -1.0880    9.5520   -2.6010 H   0  0  0  0  0  0  0  0  0  0  0  0
  1  2  1  0  0  0  0
  1  3  1  0  0  0  0
  1  6  2  0  0  0  0
  1  7  2  0  0  0  0
  2  8  1  0  0  0  0
  2  9  1  0  0  0  0
  3  5  2  0  0  0  0
  3 11  1  0  0  0  0
  4 14  1  0  0  0  0
  4 15  1  0  0  0  0
  4 16  1  0  0  0  0
  4 26  1  0  0  0  0
  5 10  1  0  0  0  0
  5 27  1  0  0  0  0
  8 15  1  0  0  0  0
  8 28  1  0  0  0  0
  8 29  1  0  0  0  0
  9 14  1  0  0  0  0
  9 30  1  0  0  0  0
  9 31  1  0  0  0  0
 10 12  2  0  0  0  0
 10 23  1  0  0  0  0
 11 13  2  0  0  0  0
 11 32  1  0  0  0  0
 12 13  1  0  0  0  0
 12 24  1  0  0  0  0
 13 33  1  0  0  0  0
 14 34  1  0  0  0  0
 14 35  1  0  0  0  0
 15 36  1  0  0  0  0
 15 37  1  0  0  0  0
 16 17  1  0  0  0  0
 16 38  1  0  0  0  0
 16 39  1  0  0  0  0
 17 19  2  0  0  0  0
 17 20  1  0  0  0  0
 18 21  2  0  0  0  0
 18 22  1  0  0  0  0
 18 25  1  0  0  0  0
 19 21  1  0  0  0  0
 19 40  1  0  0  0  0
 20 22  2  0  0  0  0
 20 41  1  0  0  0  0
 21 42  1  0  0  0  0
 22 43  1  0  0  0  0
 23 44  1  0  0  0  0
 23 45  1  0  0  0  0
 23 46  1  0  0  0  0
 24 47  1  0  0  0  0
 24 48  1  0  0  0  0
 24 49  1  0  0  0  0
 25 50  1  0  0  0  0
 25 51  1  0  0  0  0
 25 52  1  0  0  0  0
M  CHG  1   4   1
M  END
>  <$CLUSTER>
727

>  <INDEX>
553334

$$$$
