InterBioScreen STOCK5S-68320
 OpenBabel04062209303D

 48 50  0  0  0  0  0  0  0  0999 V2000
    0.6680    0.7030    0.9010 C   0  0  0  0  0  0  0  0  0  0  0  0
   -0.1530    0.6660   -0.2230 N   0  0  0  0  0  0  0  0  0  0  0  0
   -0.3680   -0.5860   -0.4950 C   0  0  0  0  0  0  0  0  0  0  0  0
    1.0860    1.8600    1.4530 C   0  0  0  0  0  0  0  0  0  0  0  0
   -1.1320   -1.0780   -1.5330 N   0  0  0  0  0  0  0  0  0  0  0  0
    0.9620   -0.6720    1.3280 C   0  0  0  0  0  0  0  0  0  0  0  0
    0.2890   -1.5000    0.4220 C   0  0  0  0  0  0  0  0  0  0  0  0
   -1.8090   -0.3000   -2.4730 C   0  0  0  0  0  0  0  0  0  0  0  0
    0.6890    3.2020    0.8850 C   0  0  0  0  0  0  0  0  0  0  0  0
    1.9720    1.9600    2.6640 C   0  0  0  0  0  0  0  0  0  0  0  0
    2.6270    1.9240    3.5600 N   0  0  0  0  0  0  0  0  0  0  0  0
   -2.5500   -1.1490   -3.4730 C   0  0  0  0  0  0  0  0  0  0  0  0
   -1.8280    0.9260   -2.5240 O   0  0  0  0  0  0  0  0  0  0  0  0
   -0.0730    3.1960   -0.1580 O   0  0  0  0  0  0  0  0  0  0  0  0
    1.1060    4.3230    1.4380 N   0  0  0  0  0  0  0  0  0  0  0  0
   -3.0280   -2.4090   -3.2220 C   0  0  0  0  0  0  0  0  0  0  0  0
   -2.8110   -0.5310   -4.7300 C   0  0  0  0  0  0  0  0  0  0  0  0
   -3.9740   -2.5240   -5.4460 C   0  0  0  0  0  0  0  0  0  0  0  0
   -3.5140   -1.2360   -5.7080 C   0  0  0  0  0  0  0  0  0  0  0  0
   -3.7330   -3.1090   -4.2030 C   0  0  0  0  0  0  0  0  0  0  0  0
   -4.6340   -3.1290   -6.4350 F   0  0  0  0  0  0  0  0  0  0  0  0
    1.6970   -1.2490    2.3450 C   0  0  0  0  0  0  0  0  0  0  0  0
    0.3150   -2.8770    0.4820 C   0  0  0  0  0  0  0  0  0  0  0  0
    0.8370    5.6560    1.0470 C   0  0  0  0  0  0  0  0  0  0  0  0
   -0.4710    6.1510    1.6340 C   0  0  0  0  0  0  0  0  0  0  0  0
   -0.7900    7.5850    1.2170 C   0  0  0  0  0  0  0  0  0  0  0  0
    1.7430   -2.6470    2.4330 C   0  0  0  0  0  0  0  0  0  0  0  0
    1.0580   -3.4540    1.5100 C   0  0  0  0  0  0  0  0  0  0  0  0
   -2.0980    8.0700    1.8080 C   0  0  0  0  0  0  0  0  0  0  0  0
   -1.2070   -2.0810   -1.6190 H   0  0  0  0  0  0  0  0  0  0  0  0
    1.6970    4.2160    2.2500 H   0  0  0  0  0  0  0  0  0  0  0  0
   -2.8580   -2.8640   -2.2570 H   0  0  0  0  0  0  0  0  0  0  0  0
   -2.4680    0.4740   -4.9240 H   0  0  0  0  0  0  0  0  0  0  0  0
   -3.7020   -0.7820   -6.6700 H   0  0  0  0  0  0  0  0  0  0  0  0
   -4.0930   -4.1070   -3.9990 H   0  0  0  0  0  0  0  0  0  0  0  0
    2.2260   -0.6350    3.0590 H   0  0  0  0  0  0  0  0  0  0  0  0
   -0.2170   -3.4820   -0.2370 H   0  0  0  0  0  0  0  0  0  0  0  0
    1.6470    6.2980    1.3940 H   0  0  0  0  0  0  0  0  0  0  0  0
    0.7780    5.7020   -0.0400 H   0  0  0  0  0  0  0  0  0  0  0  0
   -1.2760    5.5000    1.2930 H   0  0  0  0  0  0  0  0  0  0  0  0
   -0.4050    6.1090    2.7210 H   0  0  0  0  0  0  0  0  0  0  0  0
    0.0140    8.2380    1.5580 H   0  0  0  0  0  0  0  0  0  0  0  0
   -0.8570    7.6290    0.1300 H   0  0  0  0  0  0  0  0  0  0  0  0
    2.3140   -3.1110    3.2230 H   0  0  0  0  0  0  0  0  0  0  0  0
    1.1070   -4.5290    1.5980 H   0  0  0  0  0  0  0  0  0  0  0  0
   -2.0420    8.0300    2.8960 H   0  0  0  0  0  0  0  0  0  0  0  0
   -2.9110    7.4320    1.4630 H   0  0  0  0  0  0  0  0  0  0  0  0
   -2.2820    9.0960    1.4910 H   0  0  0  0  0  0  0  0  0  0  0  0
  1  2  1  0  0  0  0
  1  4  2  0  0  0  0
  1  6  1  0  0  0  0
  2  3  2  0  0  0  0
  3  5  1  0  0  0  0
  3  7  1  0  0  0  0
  4  9  1  0  0  0  0
  4 10  1  0  0  0  0
  5  8  1  0  0  0  0
  5 30  1  0  0  0  0
  6  7  1  0  0  0  0
  6 22  2  0  0  0  0
  7 23  2  0  0  0  0
  8 12  1  0  0  0  0
  8 13  2  0  0  0  0
  9 14  2  0  0  0  0
  9 15  1  0  0  0  0
 10 11  3  0  0  0  0
 12 16  1  0  0  0  0
 12 17  2  0  0  0  0
 15 24  1  0  0  0  0
 15 31  1  0  0  0  0
 16 20  2  0  0  0  0
 16 32  1  0  0  0  0
 17 19  1  0  0  0  0
 17 33  1  0  0  0  0
 18 19  2  0  0  0  0
 18 20  1  0  0  0  0
 18 21  1  0  0  0  0
 19 34  1  0  0  0  0
 20 35  1  0  0  0  0
 22 27  1  0  0  0  0
 22 36  1  0  0  0  0
 23 28  1  0  0  0  0
 23 37  1  0  0  0  0
 24 25  1  0  0  0  0
 24 38  1  0  0  0  0
 24 39  1  0  0  0  0
 25 26  1  0  0  0  0
 25 40  1  0  0  0  0
 25 41  1  0  0  0  0
 26 29  1  0  0  0  0
 26 42  1  0  0  0  0
 26 43  1  0  0  0  0
 27 28  2  0  0  0  0
 27 44  1  0  0  0  0
 28 45  1  0  0  0  0
 29 46  1  0  0  0  0
 29 47  1  0  0  0  0
 29 48  1  0  0  0  0
M  END
>  <$CLUSTER>
585

>  <INDEX>
384775

$$$$
