InterBioScreen STOCK3S-83770
 OpenBabel04062209303D

 50 53  0  0  0  0  0  0  0  0999 V2000
    0.7470    0.7730   -1.6080 N   0  0  0  0  0  0  0  0  0  0  0  0
   -0.3040    1.1890   -2.3730 N   0  0  0  0  0  0  0  0  0  0  0  0
   -1.6300    1.0680   -2.0510 C   0  0  0  0  0  0  0  0  0  0  0  0
    0.4900    0.2120   -0.4630 C   0  0  0  0  0  0  0  0  0  0  0  0
   -1.9250    0.4580   -0.7530 C   0  0  0  0  0  0  0  0  0  0  0  0
   -0.8770    0.0360    0.0570 C   0  0  0  0  0  0  0  0  0  0  0  0
    0.7210    1.3530   -6.0650 C   0  0  0  0  0  0  0  0  0  0  0  0
    1.6440   -0.2560    0.3230 C   0  0  0  0  0  0  0  0  0  0  0  0
    0.1090    1.7920   -3.6780 C   0  0  0  0  0  0  0  0  0  0  0  0
    0.2950    0.7390   -4.7590 C   0  0  0  0  0  0  0  0  0  0  0  0
   -2.5370    1.4480   -2.7880 O   0  0  0  0  0  0  0  0  0  0  0  0
    0.8950    0.4000   -7.0590 N   0  0  0  0  0  0  0  0  0  0  0  0
    0.9010    2.5500   -6.2550 O   0  0  0  0  0  0  0  0  0  0  0  0
    1.8960   -1.6240    0.4420 C   0  0  0  0  0  0  0  0  0  0  0  0
    2.4860    0.6850    0.9160 C   0  0  0  0  0  0  0  0  0  0  0  0
    1.2820    0.5370   -8.4060 C   0  0  0  0  0  0  0  0  0  0  0  0
    2.9950   -2.0530    1.1870 C   0  0  0  0  0  0  0  0  0  0  0  0
    3.5830    0.2480    1.6600 C   0  0  0  0  0  0  0  0  0  0  0  0
    3.8350   -1.1190    1.7970 C   0  0  0  0  0  0  0  0  0  0  0  0
   -3.2510    0.3200   -0.3280 C   0  0  0  0  0  0  0  0  0  0  0  0
   -1.1530   -0.5060    1.3160 C   0  0  0  0  0  0  0  0  0  0  0  0
    5.0070   -1.5860    2.5980 C   0  0  0  0  0  0  0  0  0  0  0  0
    1.3760   -0.6220   -9.1910 C   0  0  0  0  0  0  0  0  0  0  0  0
    1.5760    1.7730   -8.9920 C   0  0  0  0  0  0  0  0  0  0  0  0
   -2.4750   -0.6440    1.7430 C   0  0  0  0  0  0  0  0  0  0  0  0
   -3.5240   -0.2350    0.9210 C   0  0  0  0  0  0  0  0  0  0  0  0
    1.9550    1.8450  -10.3360 C   0  0  0  0  0  0  0  0  0  0  0  0
    1.7550   -0.5470  -10.5340 C   0  0  0  0  0  0  0  0  0  0  0  0
    2.0460    0.6880  -11.1070 C   0  0  0  0  0  0  0  0  0  0  0  0
    1.0510    2.3230   -3.5380 H   0  0  0  0  0  0  0  0  0  0  0  0
   -0.6600    2.4950   -4.0000 H   0  0  0  0  0  0  0  0  0  0  0  0
    1.0580    0.0310   -4.4350 H   0  0  0  0  0  0  0  0  0  0  0  0
   -0.6480    0.2130   -4.9070 H   0  0  0  0  0  0  0  0  0  0  0  0
    0.7140   -0.5500   -6.7680 H   0  0  0  0  0  0  0  0  0  0  0  0
    1.2470   -2.3420   -0.0370 H   0  0  0  0  0  0  0  0  0  0  0  0
    2.2910    1.7410    0.8010 H   0  0  0  0  0  0  0  0  0  0  0  0
    3.1960   -3.1090    1.2920 H   0  0  0  0  0  0  0  0  0  0  0  0
    4.2370    0.9670    2.1300 H   0  0  0  0  0  0  0  0  0  0  0  0
   -4.0610    0.6430   -0.9660 H   0  0  0  0  0  0  0  0  0  0  0  0
   -0.3430   -0.8180    1.9590 H   0  0  0  0  0  0  0  0  0  0  0  0
    5.0410   -2.6750    2.5910 H   0  0  0  0  0  0  0  0  0  0  0  0
    4.9100   -1.2320    3.6240 H   0  0  0  0  0  0  0  0  0  0  0  0
    5.9250   -1.1910    2.1630 H   0  0  0  0  0  0  0  0  0  0  0  0
    1.1530   -1.5830   -8.7520 H   0  0  0  0  0  0  0  0  0  0  0  0
    1.5100    2.6760   -8.4030 H   0  0  0  0  0  0  0  0  0  0  0  0
   -2.6860   -1.0690    2.7130 H   0  0  0  0  0  0  0  0  0  0  0  0
   -4.5460   -0.3480    1.2510 H   0  0  0  0  0  0  0  0  0  0  0  0
    2.1790    2.8040  -10.7790 H   0  0  0  0  0  0  0  0  0  0  0  0
    1.8220   -1.4470  -11.1270 H   0  0  0  0  0  0  0  0  0  0  0  0
    2.3410    0.7490  -12.1440 H   0  0  0  0  0  0  0  0  0  0  0  0
  1  2  1  0  0  0  0
  1  4  2  0  0  0  0
  2  3  1  0  0  0  0
  2  9  1  0  0  0  0
  3  5  1  0  0  0  0
  3 11  2  0  0  0  0
  4  6  1  0  0  0  0
  4  8  1  0  0  0  0
  5  6  2  0  0  0  0
  5 20  1  0  0  0  0
  6 21  1  0  0  0  0
  7 10  1  0  0  0  0
  7 12  1  0  0  0  0
  7 13  2  0  0  0  0
  8 14  2  0  0  0  0
  8 15  1  0  0  0  0
  9 10  1  0  0  0  0
  9 30  1  0  0  0  0
  9 31  1  0  0  0  0
 10 32  1  0  0  0  0
 10 33  1  0  0  0  0
 12 16  1  0  0  0  0
 12 34  1  0  0  0  0
 14 17  1  0  0  0  0
 14 35  1  0  0  0  0
 15 18  2  0  0  0  0
 15 36  1  0  0  0  0
 16 23  1  0  0  0  0
 16 24  2  0  0  0  0
 17 19  2  0  0  0  0
 17 37  1  0  0  0  0
 18 19  1  0  0  0  0
 18 38  1  0  0  0  0
 19 22  1  0  0  0  0
 20 26  2  0  0  0  0
 20 39  1  0  0  0  0
 21 25  2  0  0  0  0
 21 40  1  0  0  0  0
 22 41  1  0  0  0  0
 22 42  1  0  0  0  0
 22 43  1  0  0  0  0
 23 28  2  0  0  0  0
 23 44  1  0  0  0  0
 24 27  1  0  0  0  0
 24 45  1  0  0  0  0
 25 26  1  0  0  0  0
 25 46  1  0  0  0  0
 26 47  1  0  0  0  0
 27 29  2  0  0  0  0
 27 48  1  0  0  0  0
 28 29  1  0  0  0  0
 28 49  1  0  0  0  0
 29 50  1  0  0  0  0
M  END
>  <$CLUSTER>
531

>  <INDEX>
345888

$$$$
