Life Chemicals F0529-0304
 OpenBabel04062209303D

 39 41  0  0  0  0  0  0  0  0999 V2000
    1.2360   -2.0770   -1.2030 C   0  0  0  0  0  0  0  0  0  0  0  0
    1.4300   -0.4350   -0.7590 S   0  0  0  0  0  0  0  0  0  0  0  0
   -0.2220   -0.4340   -0.3220 C   0  0  0  0  0  0  0  0  0  0  0  0
    0.0230   -2.5510   -1.0250 N   0  0  0  0  0  0  0  0  0  0  0  0
    2.3660   -2.8550   -1.7550 C   0  0  0  0  0  0  0  0  0  0  0  0
   -0.8270   -1.5900   -0.5100 N   0  0  0  0  0  0  0  0  0  0  0  0
   -0.8590    0.6840    0.1840 N   0  0  0  0  0  0  0  0  0  0  0  0
   -0.2920    1.9310    0.4100 C   0  0  0  0  0  0  0  0  0  0  0  0
    2.2150   -3.6180   -2.9330 C   0  0  0  0  0  0  0  0  0  0  0  0
   -1.3120    2.8930    0.9700 C   0  0  0  0  0  0  0  0  0  0  0  0
   -0.7640    4.2860    1.2470 C   0  0  0  0  0  0  0  0  0  0  0  0
    3.6060   -2.8630   -1.0910 C   0  0  0  0  0  0  0  0  0  0  0  0
   -0.1110    4.6540    2.7760 S   0  0  0  0  0  0  0  0  0  0  0  0
    3.3000   -4.3570   -3.4230 C   0  0  0  0  0  0  0  0  0  0  0  0
    0.2910    6.2390    2.2730 C   0  0  0  0  0  0  0  0  0  0  0  0
    0.8640    2.2920    0.2130 O   0  0  0  0  0  0  0  0  0  0  0  0
   -0.6630    5.3260    0.3630 C   0  0  0  0  0  0  0  0  0  0  0  0
   -0.0570    6.4680    0.9610 C   0  0  0  0  0  0  0  0  0  0  0  0
    4.5250   -4.3470   -2.7530 C   0  0  0  0  0  0  0  0  0  0  0  0
    4.6790   -3.6030   -1.5890 C   0  0  0  0  0  0  0  0  0  0  0  0
    0.9840   -3.5650   -3.5420 O   0  0  0  0  0  0  0  0  0  0  0  0
    5.5010   -5.1180   -3.3440 O   0  0  0  0  0  0  0  0  0  0  0  0
    0.7950   -4.3460   -4.7160 C   0  0  0  0  0  0  0  0  0  0  0  0
    6.7710   -5.1460   -2.7020 C   0  0  0  0  0  0  0  0  0  0  0  0
   -1.8380    0.5830    0.4130 H   0  0  0  0  0  0  0  0  0  0  0  0
   -1.6930    2.4820    1.9050 H   0  0  0  0  0  0  0  0  0  0  0  0
   -2.1280    2.9820    0.2530 H   0  0  0  0  0  0  0  0  0  0  0  0
    3.7290   -2.2890   -0.1840 H   0  0  0  0  0  0  0  0  0  0  0  0
    3.1880   -4.9390   -4.3260 H   0  0  0  0  0  0  0  0  0  0  0  0
    0.7620    6.9730    2.9100 H   0  0  0  0  0  0  0  0  0  0  0  0
   -1.0010    5.2860   -0.6620 H   0  0  0  0  0  0  0  0  0  0  0  0
    0.1100    7.4030    0.4460 H   0  0  0  0  0  0  0  0  0  0  0  0
    5.6270   -3.5980   -1.0710 H   0  0  0  0  0  0  0  0  0  0  0  0
   -0.2210   -4.2060   -5.0860 H   0  0  0  0  0  0  0  0  0  0  0  0
    0.9540   -5.3990   -4.4820 H   0  0  0  0  0  0  0  0  0  0  0  0
    1.5070   -4.0320   -5.4800 H   0  0  0  0  0  0  0  0  0  0  0  0
    7.4490   -5.7870   -3.2650 H   0  0  0  0  0  0  0  0  0  0  0  0
    6.6580   -5.5360   -1.6910 H   0  0  0  0  0  0  0  0  0  0  0  0
    7.1780   -4.1360   -2.6580 H   0  0  0  0  0  0  0  0  0  0  0  0
  1  2  1  0  0  0  0
  1  4  2  0  0  0  0
  1  5  1  0  0  0  0
  2  3  1  0  0  0  0
  3  6  2  0  0  0  0
  3  7  1  0  0  0  0
  4  6  1  0  0  0  0
  5  9  2  0  0  0  0
  5 12  1  0  0  0  0
  7  8  1  0  0  0  0
  7 25  1  0  0  0  0
  8 10  1  0  0  0  0
  8 16  2  0  0  0  0
  9 14  1  0  0  0  0
  9 21  1  0  0  0  0
 10 11  1  0  0  0  0
 10 26  1  0  0  0  0
 10 27  1  0  0  0  0
 11 13  1  0  0  0  0
 11 17  2  0  0  0  0
 12 20  2  0  0  0  0
 12 28  1  0  0  0  0
 13 15  1  0  0  0  0
 14 19  2  0  0  0  0
 14 29  1  0  0  0  0
 15 18  2  0  0  0  0
 15 30  1  0  0  0  0
 17 18  1  0  0  0  0
 17 31  1  0  0  0  0
 18 32  1  0  0  0  0
 19 20  1  0  0  0  0
 19 22  1  0  0  0  0
 20 33  1  0  0  0  0
 21 23  1  0  0  0  0
 22 24  1  0  0  0  0
 23 34  1  0  0  0  0
 23 35  1  0  0  0  0
 23 36  1  0  0  0  0
 24 37  1  0  0  0  0
 24 38  1  0  0  0  0
 24 39  1  0  0  0  0
M  END
>  <$CLUSTER>
409

>  <INDEX>
271975

$$$$
