Princeton Biomolecular OSSK_459353
 OpenBabel04062209303D

 42 44  0  0  0  0  0  0  0  0999 V2000
    0.1100   -0.8950    0.9020 C   0  0  0  0  0  0  0  0  0  0  0  0
   -1.1910   -0.7280    0.6410 C   0  0  0  0  0  0  0  0  0  0  0  0
    1.1110   -0.0930    0.1580 C   0  0  0  0  0  0  0  0  0  0  0  0
   -1.7070    0.2150   -0.3530 C   0  0  0  0  0  0  0  0  0  0  0  0
    0.6190    0.8120   -0.7960 C   0  0  0  0  0  0  0  0  0  0  0  0
   -0.7620    0.9590   -1.0420 O   0  0  0  0  0  0  0  0  0  0  0  0
    2.5150   -0.1550    0.3190 C   0  0  0  0  0  0  0  0  0  0  0  0
   -2.3460   -1.5630    1.3260 C   0  0  0  0  0  0  0  0  0  0  0  0
   -2.9310   -0.8350    2.5280 C   0  0  0  0  0  0  0  0  0  0  0  0
    3.0100   -1.0350    1.2470 O   0  0  0  0  0  0  0  0  0  0  0  0
    1.4450    1.6300   -1.5680 C   0  0  0  0  0  0  0  0  0  0  0  0
    3.3500    0.6700   -0.4600 C   0  0  0  0  0  0  0  0  0  0  0  0
   -2.9090    0.3350   -0.5600 O   0  0  0  0  0  0  0  0  0  0  0  0
    2.8170    1.5550   -1.3960 C   0  0  0  0  0  0  0  0  0  0  0  0
   -2.4810    0.2850    2.8520 O   0  0  0  0  0  0  0  0  0  0  0  0
    0.5170   -1.8950    1.9460 C   0  0  0  0  0  0  0  0  0  0  0  0
    4.4210   -1.1190    1.4320 C   0  0  0  0  0  0  0  0  0  0  0  0
    4.8610   -3.5010    2.1590 C   0  0  0  0  0  0  0  0  0  0  0  0
    5.0970   -4.4580    3.1480 C   0  0  0  0  0  0  0  0  0  0  0  0
   -3.8690   -1.5130    3.0850 O   0  5  0  0  0  0  0  0  0  0  0  0
    4.6870   -2.1580    2.5060 C   0  0  0  0  0  0  0  0  0  0  0  0
    5.2540   -5.7150    2.7320 F   0  0  0  0  0  0  0  0  0  0  0  0
    4.9790   -2.7400    4.8400 C   0  0  0  0  0  0  0  0  0  0  0  0
    3.7220    2.4200   -2.2110 C   0  0  0  0  0  0  0  0  0  0  0  0
    5.1570   -4.0770    4.4880 C   0  0  0  0  0  0  0  0  0  0  0  0
    4.7430   -1.7820    3.8520 C   0  0  0  0  0  0  0  0  0  0  0  0
   -1.9420   -2.5200    1.6550 H   0  0  0  0  0  0  0  0  0  0  0  0
   -3.1380   -1.7340    0.5970 H   0  0  0  0  0  0  0  0  0  0  0  0
    1.0200    2.3120   -2.2900 H   0  0  0  0  0  0  0  0  0  0  0  0
    4.4210    0.6160   -0.3300 H   0  0  0  0  0  0  0  0  0  0  0  0
    1.6030   -1.9070    2.0340 H   0  0  0  0  0  0  0  0  0  0  0  0
    0.1650   -2.8850    1.6570 H   0  0  0  0  0  0  0  0  0  0  0  0
    0.0780   -1.6190    2.9050 H   0  0  0  0  0  0  0  0  0  0  0  0
    4.8120   -0.1520    1.7470 H   0  0  0  0  0  0  0  0  0  0  0  0
    4.9000   -1.4180    0.5000 H   0  0  0  0  0  0  0  0  0  0  0  0
    4.8130   -3.7990    1.1220 H   0  0  0  0  0  0  0  0  0  0  0  0
    5.0240   -2.4450    5.8780 H   0  0  0  0  0  0  0  0  0  0  0  0
    3.1260    3.0390   -2.8810 H   0  0  0  0  0  0  0  0  0  0  0  0
    4.3940    1.7930   -2.7970 H   0  0  0  0  0  0  0  0  0  0  0  0
    4.3060    3.0590   -1.5490 H   0  0  0  0  0  0  0  0  0  0  0  0
    5.3410   -4.8170    5.2530 H   0  0  0  0  0  0  0  0  0  0  0  0
    4.6030   -0.7470    4.1280 H   0  0  0  0  0  0  0  0  0  0  0  0
  1  2  2  0  0  0  0
  1  3  1  0  0  0  0
  1 16  1  0  0  0  0
  2  4  1  0  0  0  0
  2  8  1  0  0  0  0
  3  5  2  0  0  0  0
  3  7  1  0  0  0  0
  4  6  1  0  0  0  0
  4 13  2  0  0  0  0
  5  6  1  0  0  0  0
  5 11  1  0  0  0  0
  7 10  1  0  0  0  0
  7 12  2  0  0  0  0
  8  9  1  0  0  0  0
  8 27  1  0  0  0  0
  8 28  1  0  0  0  0
  9 15  2  0  0  0  0
  9 20  1  0  0  0  0
 10 17  1  0  0  0  0
 11 14  2  0  0  0  0
 11 29  1  0  0  0  0
 12 14  1  0  0  0  0
 12 30  1  0  0  0  0
 14 24  1  0  0  0  0
 16 31  1  0  0  0  0
 16 32  1  0  0  0  0
 16 33  1  0  0  0  0
 17 21  1  0  0  0  0
 17 34  1  0  0  0  0
 17 35  1  0  0  0  0
 18 19  2  0  0  0  0
 18 21  1  0  0  0  0
 18 36  1  0  0  0  0
 19 22  1  0  0  0  0
 19 25  1  0  0  0  0
 21 26  2  0  0  0  0
 23 25  2  0  0  0  0
 23 26  1  0  0  0  0
 23 37  1  0  0  0  0
 24 38  1  0  0  0  0
 24 39  1  0  0  0  0
 24 40  1  0  0  0  0
 25 41  1  0  0  0  0
 26 42  1  0  0  0  0
M  CHG  1  20  -1
M  END
>  <$CLUSTER>
897

>  <INDEX>
584174

$$$$
