Chem T&I AMSACS-12205
 OpenBabel04062209303D

 42 44  0  0  0  0  0  0  0  0999 V2000
    0.7420    1.3620   -1.0900 S   0  0  0  0  0  0  0  0  0  0  0  0
   -0.6910   -0.4670    0.3390 C   0  0  0  0  0  0  0  0  0  0  0  0
    0.3990   -1.2830    0.5320 N   0  0  0  0  0  0  0  0  0  0  0  0
   -0.6740    0.7070   -0.4280 N   0  0  0  0  0  0  0  0  0  0  0  0
   -1.8050   -0.8830    0.9560 N   0  0  0  0  0  0  0  0  0  0  0  0
   -1.3830   -2.0060    1.5530 N   0  0  0  0  0  0  0  0  0  0  0  0
    1.5340    1.9850    0.3760 C   0  0  0  0  0  0  0  0  0  0  0  0
   -0.0710   -2.2380    1.2980 C   0  0  0  0  0  0  0  0  0  0  0  0
    1.5750    0.3120   -1.6400 O   0  0  0  0  0  0  0  0  0  0  0  0
    0.3750    2.5110   -1.8960 O   0  0  0  0  0  0  0  0  0  0  0  0
    2.4240    1.1570    1.0590 C   0  0  0  0  0  0  0  0  0  0  0  0
    3.0640    1.6470    2.1970 C   0  0  0  0  0  0  0  0  0  0  0  0
    2.8150    2.9480    2.6360 C   0  0  0  0  0  0  0  0  0  0  0  0
   -2.2850   -2.8040    2.3530 C   0  0  0  0  0  0  0  0  0  0  0  0
    1.2800    3.2820    0.7980 C   0  0  0  0  0  0  0  0  0  0  0  0
    1.9240    3.7640    1.9370 C   0  0  0  0  0  0  0  0  0  0  0  0
   -3.1300   -3.7390    1.5070 C   0  0  0  0  0  0  0  0  0  0  0  0
   -4.3290   -3.2890    0.9430 C   0  0  0  0  0  0  0  0  0  0  0  0
   -5.0910   -4.1400    0.1410 C   0  0  0  0  0  0  0  0  0  0  0  0
   -6.5570   -3.5960   -0.5360 Cl  0  0  0  0  0  0  0  0  0  0  0  0
   -3.4570   -5.8900    0.4400 C   0  0  0  0  0  0  0  0  0  0  0  0
    4.0210    0.7820    2.9530 C   0  0  0  0  0  0  0  0  0  0  0  0
   -2.6920   -5.0410    1.2430 C   0  0  0  0  0  0  0  0  0  0  0  0
    3.5050    3.4630    3.8570 C   0  0  0  0  0  0  0  0  0  0  0  0
   -4.6560   -5.4400   -0.1090 C   0  0  0  0  0  0  0  0  0  0  0  0
   -1.5480    1.1850   -0.5940 H   0  0  0  0  0  0  0  0  0  0  0  0
    0.4980   -3.0780    1.6680 H   0  0  0  0  0  0  0  0  0  0  0  0
    2.6150    0.1520    0.7120 H   0  0  0  0  0  0  0  0  0  0  0  0
   -2.9470   -2.1370    2.9060 H   0  0  0  0  0  0  0  0  0  0  0  0
   -1.6990   -3.3980    3.0540 H   0  0  0  0  0  0  0  0  0  0  0  0
    0.5920    3.9100    0.2510 H   0  0  0  0  0  0  0  0  0  0  0  0
    1.7330    4.7700    2.2790 H   0  0  0  0  0  0  0  0  0  0  0  0
   -4.6660   -2.2800    1.1290 H   0  0  0  0  0  0  0  0  0  0  0  0
   -3.1190   -6.8970    0.2440 H   0  0  0  0  0  0  0  0  0  0  0  0
    4.0900   -0.1920    2.4690 H   0  0  0  0  0  0  0  0  0  0  0  0
    3.6660    0.6550    3.9760 H   0  0  0  0  0  0  0  0  0  0  0  0
    5.0040    1.2520    2.9650 H   0  0  0  0  0  0  0  0  0  0  0  0
   -1.7600   -5.3910    1.6610 H   0  0  0  0  0  0  0  0  0  0  0  0
    4.1560    2.6870    4.2610 H   0  0  0  0  0  0  0  0  0  0  0  0
    2.7620    3.7400    4.6050 H   0  0  0  0  0  0  0  0  0  0  0  0
    4.1010    4.3380    3.5960 H   0  0  0  0  0  0  0  0  0  0  0  0
   -5.2480   -6.0980   -0.7280 H   0  0  0  0  0  0  0  0  0  0  0  0
  1  4  1  0  0  0  0
  1  7  1  0  0  0  0
  1  9  2  0  0  0  0
  1 10  2  0  0  0  0
  2  3  1  0  0  0  0
  2  4  1  0  0  0  0
  2  5  2  0  0  0  0
  3  8  2  0  0  0  0
  4 26  1  0  0  0  0
  5  6  1  0  0  0  0
  6  8  1  0  0  0  0
  6 14  1  0  0  0  0
  7 11  1  0  0  0  0
  7 15  2  0  0  0  0
  8 27  1  0  0  0  0
 11 12  2  0  0  0  0
 11 28  1  0  0  0  0
 12 13  1  0  0  0  0
 12 22  1  0  0  0  0
 13 16  2  0  0  0  0
 13 24  1  0  0  0  0
 14 17  1  0  0  0  0
 14 29  1  0  0  0  0
 14 30  1  0  0  0  0
 15 16  1  0  0  0  0
 15 31  1  0  0  0  0
 16 32  1  0  0  0  0
 17 18  2  0  0  0  0
 17 23  1  0  0  0  0
 18 19  1  0  0  0  0
 18 33  1  0  0  0  0
 19 20  1  0  0  0  0
 19 25  2  0  0  0  0
 21 23  2  0  0  0  0
 21 25  1  0  0  0  0
 21 34  1  0  0  0  0
 22 35  1  0  0  0  0
 22 36  1  0  0  0  0
 22 37  1  0  0  0  0
 23 38  1  0  0  0  0
 24 39  1  0  0  0  0
 24 40  1  0  0  0  0
 24 41  1  0  0  0  0
 25 42  1  0  0  0  0
M  END
>  <$CLUSTER>
791

>  <INDEX>
518655

$$$$
