Nanosyn NS40942
 OpenBabel04062209303D

 47 49  0  0  0  0  0  0  0  0999 V2000
    0.5050    2.0520   -0.7350 S   0  0  0  0  0  0  0  0  0  0  0  0
    1.7710    1.4840    4.3480 C   0  0  0  0  0  0  0  0  0  0  0  0
    0.6050    0.4240   -1.2640 N   0  0  0  0  0  0  0  0  0  0  0  0
    1.6930    2.0340    0.5890 C   0  0  0  0  0  0  0  0  0  0  0  0
    0.6720    0.6710    4.5170 N   0  0  0  0  0  0  0  0  0  0  0  0
    2.1810    1.7790    2.9560 C   0  0  0  0  0  0  0  0  0  0  0  0
    1.0520    2.8960   -1.7810 O   0  0  0  0  0  0  0  0  0  0  0  0
   -0.7960    2.3370   -0.1630 O   0  0  0  0  0  0  0  0  0  0  0  0
    1.2650    1.7540    1.9030 C   0  0  0  0  0  0  0  0  0  0  0  0
    2.4140    1.9460    5.2880 O   0  0  0  0  0  0  0  0  0  0  0  0
    0.0220   -0.5940   -0.4320 C   0  0  0  0  0  0  0  0  0  0  0  0
    0.0260    0.1980    5.6410 C   0  0  0  0  0  0  0  0  0  0  0  0
   -1.0630   -2.5590    1.2270 C   0  0  0  0  0  0  0  0  0  0  0  0
   -1.3670   -0.8250    7.8560 C   0  0  0  0  0  0  0  0  0  0  0  0
    0.4430    0.5010    6.9400 C   0  0  0  0  0  0  0  0  0  0  0  0
   -1.0970   -0.6240    5.4650 C   0  0  0  0  0  0  0  0  0  0  0  0
   -1.3610   -0.6700   -0.2530 C   0  0  0  0  0  0  0  0  0  0  0  0
    0.8630   -1.5010    0.2200 C   0  0  0  0  0  0  0  0  0  0  0  0
   -1.9010   -1.6540    0.5760 C   0  0  0  0  0  0  0  0  0  0  0  0
   -1.7900   -1.1330    6.5650 C   0  0  0  0  0  0  0  0  0  0  0  0
   -0.2530   -0.0100    8.0410 C   0  0  0  0  0  0  0  0  0  0  0  0
    0.3180   -2.4830    1.0480 C   0  0  0  0  0  0  0  0  0  0  0  0
    3.0340    2.3720    0.3590 C   0  0  0  0  0  0  0  0  0  0  0  0
    3.5180    2.0990    2.7120 C   0  0  0  0  0  0  0  0  0  0  0  0
    3.9440    2.3950    1.4160 C   0  0  0  0  0  0  0  0  0  0  0  0
   -1.6420   -3.6100    2.1170 C   0  0  0  0  0  0  0  0  0  0  0  0
   -2.1060   -1.3680    9.0340 C   0  0  0  0  0  0  0  0  0  0  0  0
    1.0600    0.1870   -2.1340 H   0  0  0  0  0  0  0  0  0  0  0  0
    0.2580    0.3610    3.6490 H   0  0  0  0  0  0  0  0  0  0  0  0
    0.2280    1.5200    2.0950 H   0  0  0  0  0  0  0  0  0  0  0  0
    1.3060    1.1320    7.0950 H   0  0  0  0  0  0  0  0  0  0  0  0
   -1.4300   -0.8660    4.4660 H   0  0  0  0  0  0  0  0  0  0  0  0
   -2.0110    0.0310   -0.7550 H   0  0  0  0  0  0  0  0  0  0  0  0
    1.9330   -1.4420    0.0830 H   0  0  0  0  0  0  0  0  0  0  0  0
   -2.9700   -1.7150    0.7140 H   0  0  0  0  0  0  0  0  0  0  0  0
   -2.6530   -1.7650    6.4150 H   0  0  0  0  0  0  0  0  0  0  0  0
    0.0760    0.2290    9.0410 H   0  0  0  0  0  0  0  0  0  0  0  0
    0.9660   -3.1850    1.5510 H   0  0  0  0  0  0  0  0  0  0  0  0
    3.3640    2.6150   -0.6400 H   0  0  0  0  0  0  0  0  0  0  0  0
    4.2250    2.1180    3.5280 H   0  0  0  0  0  0  0  0  0  0  0  0
    4.9790    2.6420    1.2320 H   0  0  0  0  0  0  0  0  0  0  0  0
   -2.7280   -3.5140    2.1330 H   0  0  0  0  0  0  0  0  0  0  0  0
   -1.2510   -3.4870    3.1270 H   0  0  0  0  0  0  0  0  0  0  0  0
   -1.3700   -4.5960    1.7400 H   0  0  0  0  0  0  0  0  0  0  0  0
   -2.9410   -1.9780    8.6890 H   0  0  0  0  0  0  0  0  0  0  0  0
   -2.4840   -0.5430    9.6380 H   0  0  0  0  0  0  0  0  0  0  0  0
   -1.4330   -1.9790    9.6350 H   0  0  0  0  0  0  0  0  0  0  0  0
  1  3  1  0  0  0  0
  1  4  1  0  0  0  0
  1  7  2  0  0  0  0
  1  8  2  0  0  0  0
  2  5  1  0  0  0  0
  2  6  1  0  0  0  0
  2 10  2  0  0  0  0
  3 11  1  0  0  0  0
  3 28  1  0  0  0  0
  4  9  2  0  0  0  0
  4 23  1  0  0  0  0
  5 12  1  0  0  0  0
  5 29  1  0  0  0  0
  6  9  1  0  0  0  0
  6 24  2  0  0  0  0
  9 30  1  0  0  0  0
 11 17  2  0  0  0  0
 11 18  1  0  0  0  0
 12 15  1  0  0  0  0
 12 16  2  0  0  0  0
 13 19  2  0  0  0  0
 13 22  1  0  0  0  0
 13 26  1  0  0  0  0
 14 20  2  0  0  0  0
 14 21  1  0  0  0  0
 14 27  1  0  0  0  0
 15 21  2  0  0  0  0
 15 31  1  0  0  0  0
 16 20  1  0  0  0  0
 16 32  1  0  0  0  0
 17 19  1  0  0  0  0
 17 33  1  0  0  0  0
 18 22  2  0  0  0  0
 18 34  1  0  0  0  0
 19 35  1  0  0  0  0
 20 36  1  0  0  0  0
 21 37  1  0  0  0  0
 22 38  1  0  0  0  0
 23 25  2  0  0  0  0
 23 39  1  0  0  0  0
 24 25  1  0  0  0  0
 24 40  1  0  0  0  0
 25 41  1  0  0  0  0
 26 42  1  0  0  0  0
 26 43  1  0  0  0  0
 26 44  1  0  0  0  0
 27 45  1  0  0  0  0
 27 46  1  0  0  0  0
 27 47  1  0  0  0  0
M  END
>  <$CLUSTER>
85

>  <INDEX>
565184

$$$$
