Comgenex CGX-3127127
 OpenBabel04062209303D

 50 52  0  0  1  0  0  0  0  0999 V2000
    1.4260   -0.4320   -0.7710 S   0  0  0  0  0  0  0  0  0  0  0  0
   -0.2210   -0.4340   -0.3150 C   0  0  0  0  0  0  0  0  0  0  0  0
    1.2320   -2.0770   -1.2040 C   0  0  0  0  0  0  0  0  0  0  0  0
    0.0230   -2.5540   -1.0090 N   0  0  0  0  0  0  0  0  0  0  0  0
   -0.8550    0.6850    0.1920 N   0  0  0  0  0  0  0  0  0  0  0  0
   -0.8240   -1.5930   -0.4900 N   0  0  0  0  0  0  0  0  0  0  0  0
   -0.2910    1.9350    0.4050 C   0  0  0  0  0  0  0  0  0  0  0  0
   -2.3900    3.2290   -0.0020 N   0  0  0  0  0  0  0  0  0  0  0  0
   -3.6830    3.4810    0.3370 C   0  0  0  0  0  0  0  0  0  0  0  0
   -1.3070    2.8960    0.9710 C   0  0  2  0  0  0  0  0  0  0  0  0
    2.3530   -2.8960   -1.7570 C   0  0  0  0  0  0  0  0  0  0  0  0
   -4.5420    3.7550   -0.8670 C   0  0  0  0  0  0  0  0  0  0  0  0
    0.8620    2.2980    0.1920 O   0  0  0  0  0  0  0  0  0  0  0  0
   -4.1300    3.5270    1.4810 O   0  0  0  0  0  0  0  0  0  0  0  0
    2.1100   -4.2360   -2.1100 C   0  0  0  0  0  0  0  0  0  0  0  0
    3.6520   -2.3950   -1.9480 C   0  0  0  0  0  0  0  0  0  0  0  0
   -5.7170    4.5350   -0.6290 C   0  0  0  0  0  0  0  0  0  0  0  0
   -4.3140    3.2410   -2.1140 C   0  0  0  0  0  0  0  0  0  0  0  0
   -0.7010    4.2310    1.4600 C   0  0  0  0  0  0  0  0  0  0  0  0
   -6.3210    4.2980   -2.9560 C   0  0  0  0  0  0  0  0  0  0  0  0
   -6.5870    4.8070   -1.6870 C   0  0  0  0  0  0  0  0  0  0  0  0
   -5.1880    3.5150   -3.1690 C   0  0  0  0  0  0  0  0  0  0  0  0
    3.1250   -5.0440   -2.6320 C   0  0  0  0  0  0  0  0  0  0  0  0
    4.6660   -3.2040   -2.4700 C   0  0  0  0  0  0  0  0  0  0  0  0
    4.4030   -4.5280   -2.8120 C   0  0  0  0  0  0  0  0  0  0  0  0
   -7.3880    4.6410   -4.2380 Cl  0  0  0  0  0  0  0  0  0  0  0  0
   -1.6560    5.1170    2.2550 C   0  0  0  0  0  0  0  0  0  0  0  0
    0.0040    5.0600    0.3800 C   0  0  0  0  0  0  0  0  0  0  0  0
    5.4860   -5.3900   -3.3700 C   0  0  0  0  0  0  0  0  0  0  0  0
   -1.8310    0.5820    0.4330 H   0  0  0  0  0  0  0  0  0  0  0  0
   -2.1450    3.2700   -0.9810 H   0  0  0  0  0  0  0  0  0  0  0  0
   -1.7160    2.3550    1.8250 H   0  0  0  0  0  0  0  0  0  0  0  0
    1.1210   -4.6480   -1.9750 H   0  0  0  0  0  0  0  0  0  0  0  0
    3.8700   -1.3700   -1.6880 H   0  0  0  0  0  0  0  0  0  0  0  0
   -5.9300    4.9110    0.3610 H   0  0  0  0  0  0  0  0  0  0  0  0
   -3.4490    2.6170   -2.2850 H   0  0  0  0  0  0  0  0  0  0  0  0
    0.0670    3.8770    2.1480 H   0  0  0  0  0  0  0  0  0  0  0  0
   -7.4660    5.4120   -1.5210 H   0  0  0  0  0  0  0  0  0  0  0  0
   -4.9850    3.1190   -4.1530 H   0  0  0  0  0  0  0  0  0  0  0  0
    2.9160   -6.0700   -2.8960 H   0  0  0  0  0  0  0  0  0  0  0  0
    5.6580   -2.8000   -2.6090 H   0  0  0  0  0  0  0  0  0  0  0  0
   -2.4400    5.4900    1.5950 H   0  0  0  0  0  0  0  0  0  0  0  0
   -1.1050    5.9580    2.6770 H   0  0  0  0  0  0  0  0  0  0  0  0
   -2.1050    4.5360    3.0610 H   0  0  0  0  0  0  0  0  0  0  0  0
   -0.7330    5.4340   -0.3300 H   0  0  0  0  0  0  0  0  0  0  0  0
    0.7280    4.4350   -0.1430 H   0  0  0  0  0  0  0  0  0  0  0  0
    0.5190    5.9010    0.8450 H   0  0  0  0  0  0  0  0  0  0  0  0
    5.0900   -6.3850   -3.5740 H   0  0  0  0  0  0  0  0  0  0  0  0
    6.3000   -5.4640   -2.6490 H   0  0  0  0  0  0  0  0  0  0  0  0
    5.8590   -4.9510   -4.2950 H   0  0  0  0  0  0  0  0  0  0  0  0
  1  2  1  0  0  0  0
  1  3  1  0  0  0  0
  2  5  1  0  0  0  0
  2  6  2  0  0  0  0
  3  4  2  0  0  0  0
  3 11  1  0  0  0  0
  4  6  1  0  0  0  0
  5  7  1  0  0  0  0
  5 30  1  0  0  0  0
  7 10  1  0  0  0  0
  7 13  2  0  0  0  0
  8  9  1  0  0  0  0
  8 10  1  0  0  0  0
  8 31  1  0  0  0  0
  9 12  1  0  0  0  0
  9 14  2  0  0  0  0
 10 19  1  0  0  0  0
 10 32  1  1  0  0  0
 11 15  2  0  0  0  0
 11 16  1  0  0  0  0
 12 17  2  0  0  0  0
 12 18  1  0  0  0  0
 15 23  1  0  0  0  0
 15 33  1  0  0  0  0
 16 24  2  0  0  0  0
 16 34  1  0  0  0  0
 17 21  1  0  0  0  0
 17 35  1  0  0  0  0
 18 22  2  0  0  0  0
 18 36  1  0  0  0  0
 19 27  1  0  0  0  0
 19 28  1  0  0  0  0
 19 37  1  0  0  0  0
 20 21  2  0  0  0  0
 20 22  1  0  0  0  0
 20 26  1  0  0  0  0
 21 38  1  0  0  0  0
 22 39  1  0  0  0  0
 23 25  2  0  0  0  0
 23 40  1  0  0  0  0
 24 25  1  0  0  0  0
 24 41  1  0  0  0  0
 25 29  1  0  0  0  0
 27 42  1  0  0  0  0
 27 43  1  0  0  0  0
 27 44  1  0  0  0  0
 28 45  1  0  0  0  0
 28 46  1  0  0  0  0
 28 47  1  0  0  0  0
 29 48  1  0  0  0  0
 29 49  1  0  0  0  0
 29 50  1  0  0  0  0
M  END
>  <$CLUSTER>
391

>  <INDEX>
260085

$$$$
