Pharmeks PHAR059863
 OpenBabel04062209303D

 40 42  0  0  0  0  0  0  0  0999 V2000
    1.2650   -1.2950   -0.6470 S   0  0  0  0  0  0  0  0  0  0  0  0
   -0.0560   -0.3190    0.0080 C   0  0  0  0  0  0  0  0  0  0  0  0
    2.1200    0.2100   -0.9530 C   0  0  0  0  0  0  0  0  0  0  0  0
   -1.1050   -0.9220    0.4520 N   0  0  0  0  0  0  0  0  0  0  0  0
    1.5260    1.3150   -0.6220 N   0  0  0  0  0  0  0  0  0  0  0  0
   -2.1470   -0.1860    0.9670 C   0  0  0  0  0  0  0  0  0  0  0  0
    0.3150    1.0000   -0.0880 N   0  0  0  0  0  0  0  0  0  0  0  0
   -3.1830   -0.9850    1.3950 N   0  0  0  0  0  0  0  0  0  0  0  0
    3.4730    0.1430   -1.5720 C   0  0  0  0  0  0  0  0  0  0  0  0
   -2.2070    1.0400    1.0600 O   0  0  0  0  0  0  0  0  0  0  0  0
    4.2800    1.2930   -1.4370 C   0  0  0  0  0  0  0  0  0  0  0  0
    3.9410   -0.9480   -2.2700 C   0  0  0  0  0  0  0  0  0  0  0  0
   -4.4350   -0.6770    1.9820 C   0  0  0  0  0  0  0  0  0  0  0  0
    6.0310    0.1990   -2.6930 C   0  0  0  0  0  0  0  0  0  0  0  0
    5.5600    1.3090   -1.9980 C   0  0  0  0  0  0  0  0  0  0  0  0
    5.2220   -0.9270   -2.8300 C   0  0  0  0  0  0  0  0  0  0  0  0
    7.3030    0.3410   -3.2010 O   0  0  0  0  0  0  0  0  0  0  0  0
    7.8410   -0.7630   -3.9280 C   0  0  0  0  0  0  0  0  0  0  0  0
   -4.8410    0.6360    2.2380 C   0  0  0  0  0  0  0  0  0  0  0  0
   -5.2990   -1.7300    2.3190 C   0  0  0  0  0  0  0  0  0  0  0  0
    9.2380   -0.3850   -4.3860 C   0  0  0  0  0  0  0  0  0  0  0  0
   -6.5430   -1.4750    2.8990 C   0  0  0  0  0  0  0  0  0  0  0  0
   -6.0880    0.8890    2.8190 C   0  0  0  0  0  0  0  0  0  0  0  0
   -6.9380   -0.1640    3.1500 C   0  0  0  0  0  0  0  0  0  0  0  0
   -0.3050    1.7290    0.2350 H   0  0  0  0  0  0  0  0  0  0  0  0
   -3.0200   -1.9740    1.2670 H   0  0  0  0  0  0  0  0  0  0  0  0
    3.9100    2.1560   -0.9030 H   0  0  0  0  0  0  0  0  0  0  0  0
    3.3170   -1.8220   -2.3850 H   0  0  0  0  0  0  0  0  0  0  0  0
    6.1840    2.1840   -1.8920 H   0  0  0  0  0  0  0  0  0  0  0  0
    5.5860   -1.7880   -3.3710 H   0  0  0  0  0  0  0  0  0  0  0  0
    7.2130   -0.9780   -4.7930 H   0  0  0  0  0  0  0  0  0  0  0  0
    7.8870   -1.6420   -3.2850 H   0  0  0  0  0  0  0  0  0  0  0  0
   -4.1890    1.4590    1.9860 H   0  0  0  0  0  0  0  0  0  0  0  0
   -4.9980   -2.7490    2.1270 H   0  0  0  0  0  0  0  0  0  0  0  0
    9.1840    0.4940   -5.0280 H   0  0  0  0  0  0  0  0  0  0  0  0
    9.6750   -1.2150   -4.9420 H   0  0  0  0  0  0  0  0  0  0  0  0
    9.8580   -0.1630   -3.5170 H   0  0  0  0  0  0  0  0  0  0  0  0
   -7.1990   -2.2950    3.1530 H   0  0  0  0  0  0  0  0  0  0  0  0
   -6.3940    1.9070    3.0120 H   0  0  0  0  0  0  0  0  0  0  0  0
   -7.8990    0.0360    3.5990 H   0  0  0  0  0  0  0  0  0  0  0  0
  1  2  1  0  0  0  0
  1  3  1  0  0  0  0
  2  4  2  0  0  0  0
  2  7  1  0  0  0  0
  3  5  2  0  0  0  0
  3  9  1  0  0  0  0
  4  6  1  0  0  0  0
  5  7  1  0  0  0  0
  6  8  1  0  0  0  0
  6 10  2  0  0  0  0
  7 25  1  0  0  0  0
  8 13  1  0  0  0  0
  8 26  1  0  0  0  0
  9 11  2  0  0  0  0
  9 12  1  0  0  0  0
 11 15  1  0  0  0  0
 11 27  1  0  0  0  0
 12 16  2  0  0  0  0
 12 28  1  0  0  0  0
 13 19  1  0  0  0  0
 13 20  2  0  0  0  0
 14 15  2  0  0  0  0
 14 16  1  0  0  0  0
 14 17  1  0  0  0  0
 15 29  1  0  0  0  0
 16 30  1  0  0  0  0
 17 18  1  0  0  0  0
 18 21  1  0  0  0  0
 18 31  1  0  0  0  0
 18 32  1  0  0  0  0
 19 23  2  0  0  0  0
 19 33  1  0  0  0  0
 20 22  1  0  0  0  0
 20 34  1  0  0  0  0
 21 35  1  0  0  0  0
 21 36  1  0  0  0  0
 21 37  1  0  0  0  0
 22 24  2  0  0  0  0
 22 38  1  0  0  0  0
 23 24  1  0  0  0  0
 23 39  1  0  0  0  0
 24 40  1  0  0  0  0
M  END
>  <$CLUSTER>
928

>  <INDEX>
599906

$$$$
