Lithuania 1050567
 OpenBabel04062209303D

 41 43  0  0  0  0  0  0  0  0999 V2000
    1.2270    0.1670    0.3400 C   0  0  0  0  0  0  0  0  0  0  0  0
    0.3380    1.1920    0.1200 N   0  0  0  0  0  0  0  0  0  0  0  0
   -1.0620   -0.6390   -0.3060 C   0  0  0  0  0  0  0  0  0  0  0  0
   -0.9450    0.8390   -0.2390 C   0  0  0  0  0  0  0  0  0  0  0  0
    0.4430   -1.3730    0.0890 S   0  0  0  0  0  0  0  0  0  0  0  0
   -2.2010   -1.2570   -0.6320 C   0  0  0  0  0  0  0  0  0  0  0  0
    2.4520    0.3840    0.6800 N   0  0  0  0  0  0  0  0  0  0  0  0
   -2.4460   -2.7290   -0.7330 C   0  0  0  0  0  0  0  0  0  0  0  0
    5.8240   -4.2210    1.4310 C   0  0  0  0  0  0  0  0  0  0  0  0
   -1.8730    1.6060   -0.4760 O   0  0  0  0  0  0  0  0  0  0  0  0
    4.9200   -2.9870    1.2790 C   0  0  0  0  0  0  0  0  0  0  0  0
   -3.2210   -3.2620   -1.7480 C   0  0  0  0  0  0  0  0  0  0  0  0
   -1.8630   -3.5590    0.2430 C   0  0  0  0  0  0  0  0  0  0  0  0
    6.0380   -4.9310    0.4060 O   0  0  0  0  0  0  0  0  0  0  0  0
    3.3350   -0.7710    0.8960 C   0  0  0  0  0  0  0  0  0  0  0  0
    0.7330    2.5810    0.2610 C   0  0  0  0  0  0  0  0  0  0  0  0
    4.8350   -2.3990    0.0160 C   0  0  0  0  0  0  0  0  0  0  0  0
    4.1960   -2.4530    2.3460 C   0  0  0  0  0  0  0  0  0  0  0  0
   -3.4230   -4.6490   -1.7910 C   0  0  0  0  0  0  0  0  0  0  0  0
   -2.0710   -4.9370    0.1880 C   0  0  0  0  0  0  0  0  0  0  0  0
    6.2370   -4.3920    2.6150 O   0  5  0  0  0  0  0  0  0  0  0  0
    3.3850   -1.3330    2.1490 C   0  0  0  0  0  0  0  0  0  0  0  0
    4.0230   -1.2800   -0.1800 C   0  0  0  0  0  0  0  0  0  0  0  0
   -2.8480   -5.4800   -0.8280 C   0  0  0  0  0  0  0  0  0  0  0  0
   -1.3790   -5.9620    1.3580 Cl  0  0  0  0  0  0  0  0  0  0  0  0
   -3.7490   -2.3780   -2.6590 O   0  0  0  0  0  0  0  0  0  0  0  0
   -4.5650   -2.9100   -3.6940 C   0  0  0  0  0  0  0  0  0  0  0  0
   -3.0440   -0.6180   -0.8480 H   0  0  0  0  0  0  0  0  0  0  0  0
   -1.2590   -3.1320    1.0290 H   0  0  0  0  0  0  0  0  0  0  0  0
   -0.1190    3.2250    0.0420 H   0  0  0  0  0  0  0  0  0  0  0  0
    1.5430    2.8010   -0.4350 H   0  0  0  0  0  0  0  0  0  0  0  0
    1.0720    2.7610    1.2810 H   0  0  0  0  0  0  0  0  0  0  0  0
    5.3970   -2.8090   -0.8100 H   0  0  0  0  0  0  0  0  0  0  0  0
    4.2630   -2.9060    3.3240 H   0  0  0  0  0  0  0  0  0  0  0  0
   -4.0290   -5.0780   -2.5760 H   0  0  0  0  0  0  0  0  0  0  0  0
    2.8100   -0.9180    2.9630 H   0  0  0  0  0  0  0  0  0  0  0  0
    3.9370   -0.8240   -1.1550 H   0  0  0  0  0  0  0  0  0  0  0  0
   -3.0070   -6.5470   -0.8730 H   0  0  0  0  0  0  0  0  0  0  0  0
   -4.9110   -2.1000   -4.3360 H   0  0  0  0  0  0  0  0  0  0  0  0
   -5.4240   -3.4180   -3.2550 H   0  0  0  0  0  0  0  0  0  0  0  0
   -3.9860   -3.6200   -4.2850 H   0  0  0  0  0  0  0  0  0  0  0  0
  1  2  1  0  0  0  0
  1  5  1  0  0  0  0
  1  7  2  0  0  0  0
  2  4  1  0  0  0  0
  2 16  1  0  0  0  0
  3  4  1  0  0  0  0
  3  5  1  0  0  0  0
  3  6  2  0  0  0  0
  4 10  2  0  0  0  0
  6  8  1  0  0  0  0
  6 28  1  0  0  0  0
  7 15  1  0  0  0  0
  8 12  1  0  0  0  0
  8 13  2  0  0  0  0
  9 11  1  0  0  0  0
  9 14  2  0  0  0  0
  9 21  1  0  0  0  0
 11 17  1  0  0  0  0
 11 18  2  0  0  0  0
 12 19  2  0  0  0  0
 12 26  1  0  0  0  0
 13 20  1  0  0  0  0
 13 29  1  0  0  0  0
 15 22  2  0  0  0  0
 15 23  1  0  0  0  0
 16 30  1  0  0  0  0
 16 31  1  0  0  0  0
 16 32  1  0  0  0  0
 17 23  2  0  0  0  0
 17 33  1  0  0  0  0
 18 22  1  0  0  0  0
 18 34  1  0  0  0  0
 19 24  1  0  0  0  0
 19 35  1  0  0  0  0
 20 24  2  0  0  0  0
 20 25  1  0  0  0  0
 22 36  1  0  0  0  0
 23 37  1  0  0  0  0
 24 38  1  0  0  0  0
 26 27  1  0  0  0  0
 27 39  1  0  0  0  0
 27 40  1  0  0  0  0
 27 41  1  0  0  0  0
M  CHG  1  21  -1
M  END
>  <$CLUSTER>
102

>  <INDEX>
222602

$$$$
