Chem T&I AMCLME-04601
 OpenBabel04062209303D

 50 52  0  0  0  0  0  0  0  0999 V2000
   -1.2660    1.1460   -0.4770 S   0  0  0  0  0  0  0  0  0  0  0  0
   -2.6300    0.3030    0.0970 N   0  0  0  0  0  0  0  0  0  0  0  0
    0.0200    0.0250   -0.0150 C   0  0  0  0  0  0  0  0  0  0  0  0
   -6.0240   -2.4730    3.0370 C   0  0  0  0  0  0  0  0  0  0  0  0
   -4.6170   -1.4830    1.2250 N   0  3  0  0  0  0  0  0  0  0  0  0
   -1.0970    2.3580    0.3000 O   0  0  0  0  0  0  0  0  0  0  0  0
   -1.3130    1.1930   -1.9250 O   0  0  0  0  0  0  0  0  0  0  0  0
   -2.8390    0.1980    1.5680 C   0  0  0  0  0  0  0  0  0  0  0  0
   -3.0510   -0.9400   -0.6070 C   0  0  0  0  0  0  0  0  0  0  0  0
   -7.2630   -2.9160    3.4020 N   0  0  0  0  0  0  0  0  0  0  0  0
   -5.9860   -1.9660    1.6100 C   0  0  0  0  0  0  0  0  0  0  0  0
   -5.0380   -2.4770    3.7700 O   0  0  0  0  0  0  0  0  0  0  0  0
   -4.2520   -0.1990    1.9210 C   0  0  0  0  0  0  0  0  0  0  0  0
   -4.4640   -1.3440   -0.2670 C   0  0  0  0  0  0  0  0  0  0  0  0
    0.4300   -0.9590   -0.9150 C   0  0  0  0  0  0  0  0  0  0  0  0
    0.6380    0.1630    1.2280 C   0  0  0  0  0  0  0  0  0  0  0  0
   -7.7170   -3.4580    4.6270 C   0  0  0  0  0  0  0  0  0  0  0  0
    2.0840   -1.6990    0.6870 C   0  0  0  0  0  0  0  0  0  0  0  0
    1.4640   -1.8240   -0.5570 C   0  0  0  0  0  0  0  0  0  0  0  0
    1.6710   -0.7070    1.5770 C   0  0  0  0  0  0  0  0  0  0  0  0
   -8.7320   -4.5470    7.0100 C   0  0  0  0  0  0  0  0  0  0  0  0
    3.3450   -2.7630    1.1110 Cl  0  0  0  0  0  0  0  0  0  0  0  0
   -6.8840   -3.6330    5.7360 C   0  0  0  0  0  0  0  0  0  0  0  0
   -9.0650   -3.8360    4.7270 C   0  0  0  0  0  0  0  0  0  0  0  0
   -9.5690   -4.3770    5.9110 C   0  0  0  0  0  0  0  0  0  0  0  0
   -7.3920   -4.1760    6.9210 C   0  0  0  0  0  0  0  0  0  0  0  0
   -9.2720   -5.1260    8.2750 C   0  0  0  0  0  0  0  0  0  0  0  0
   -3.9700   -2.1940    1.5350 H   0  0  0  0  0  0  0  0  0  0  0  0
   -2.6230    1.1650    2.0220 H   0  0  0  0  0  0  0  0  0  0  0  0
   -2.1550   -0.5510    1.9660 H   0  0  0  0  0  0  0  0  0  0  0  0
   -2.3780   -1.7490   -0.3220 H   0  0  0  0  0  0  0  0  0  0  0  0
   -2.9840   -0.7730   -1.6820 H   0  0  0  0  0  0  0  0  0  0  0  0
   -7.9680   -2.8450    2.6820 H   0  0  0  0  0  0  0  0  0  0  0  0
   -6.6920   -1.1420    1.5100 H   0  0  0  0  0  0  0  0  0  0  0  0
   -6.2760   -2.7760    0.9400 H   0  0  0  0  0  0  0  0  0  0  0  0
   -4.3290   -0.3390    2.9990 H   0  0  0  0  0  0  0  0  0  0  0  0
   -4.9370    0.5890    1.6070 H   0  0  0  0  0  0  0  0  0  0  0  0
   -5.1540   -0.5830   -0.6310 H   0  0  0  0  0  0  0  0  0  0  0  0
   -4.6910   -2.2980   -0.7430 H   0  0  0  0  0  0  0  0  0  0  0  0
   -0.0480   -1.0500   -1.8790 H   0  0  0  0  0  0  0  0  0  0  0  0
    0.3200    0.9350    1.9130 H   0  0  0  0  0  0  0  0  0  0  0  0
    1.7860   -2.5920   -1.2440 H   0  0  0  0  0  0  0  0  0  0  0  0
    2.1530   -0.6120    2.5390 H   0  0  0  0  0  0  0  0  0  0  0  0
   -5.8440   -3.3480    5.6780 H   0  0  0  0  0  0  0  0  0  0  0  0
   -9.7200   -3.7070    3.8780 H   0  0  0  0  0  0  0  0  0  0  0  0
  -10.6080   -4.6640    5.9740 H   0  0  0  0  0  0  0  0  0  0  0  0
   -6.7410   -4.3080    7.7730 H   0  0  0  0  0  0  0  0  0  0  0  0
  -10.3310   -5.3510    8.1490 H   0  0  0  0  0  0  0  0  0  0  0  0
   -9.1470   -4.4080    9.0860 H   0  0  0  0  0  0  0  0  0  0  0  0
   -8.7320   -6.0420    8.5150 H   0  0  0  0  0  0  0  0  0  0  0  0
  1  2  1  0  0  0  0
  1  3  1  0  0  0  0
  1  6  2  0  0  0  0
  1  7  2  0  0  0  0
  2  8  1  0  0  0  0
  2  9  1  0  0  0  0
  3 15  2  0  0  0  0
  3 16  1  0  0  0  0
  4 10  1  0  0  0  0
  4 11  1  0  0  0  0
  4 12  2  0  0  0  0
  5 11  1  0  0  0  0
  5 13  1  0  0  0  0
  5 14  1  0  0  0  0
  5 28  1  0  0  0  0
  8 13  1  0  0  0  0
  8 29  1  0  0  0  0
  8 30  1  0  0  0  0
  9 14  1  0  0  0  0
  9 31  1  0  0  0  0
  9 32  1  0  0  0  0
 10 17  1  0  0  0  0
 10 33  1  0  0  0  0
 11 34  1  0  0  0  0
 11 35  1  0  0  0  0
 13 36  1  0  0  0  0
 13 37  1  0  0  0  0
 14 38  1  0  0  0  0
 14 39  1  0  0  0  0
 15 19  1  0  0  0  0
 15 40  1  0  0  0  0
 16 20  2  0  0  0  0
 16 41  1  0  0  0  0
 17 23  1  0  0  0  0
 17 24  2  0  0  0  0
 18 19  2  0  0  0  0
 18 20  1  0  0  0  0
 18 22  1  0  0  0  0
 19 42  1  0  0  0  0
 20 43  1  0  0  0  0
 21 25  2  0  0  0  0
 21 26  1  0  0  0  0
 21 27  1  0  0  0  0
 23 26  2  0  0  0  0
 23 44  1  0  0  0  0
 24 25  1  0  0  0  0
 24 45  1  0  0  0  0
 25 46  1  0  0  0  0
 26 47  1  0  0  0  0
 27 48  1  0  0  0  0
 27 49  1  0  0  0  0
 27 50  1  0  0  0  0
M  CHG  1   5   1
M  END
>  <$CLUSTER>
776

>  <INDEX>
508152

$$$$
