InterBioScreen STOCK4S-52524
 OpenBabel04062209303D

 62 65  0  0  1  0  0  0  0  0999 V2000
    0.8080    4.1080    4.7660 C   0  0  0  0  0  0  0  0  0  0  0  0
    0.0770    2.9840    4.7640 C   0  0  0  0  0  0  0  0  0  0  0  0
    1.5800    1.9680    3.1110 C   0  0  0  0  0  0  0  0  0  0  0  0
    0.3830    5.1790    5.6210 N   0  0  0  0  0  0  0  0  0  0  0  0
   -1.4090    3.8870    6.3860 N   0  0  0  0  0  0  0  0  0  0  0  0
    1.9210    4.2410    3.9680 N   0  0  0  0  0  0  0  0  0  0  0  0
   -0.6630    5.0160    6.3570 C   0  0  0  0  0  0  0  0  0  0  0  0
    2.3420    3.2360    3.1200 C   0  0  0  0  0  0  0  0  0  0  0  0
   -1.1050    2.8090    5.6200 C   0  0  0  0  0  0  0  0  0  0  0  0
    0.4870    1.8800    3.9070 C   0  0  0  0  0  0  0  0  0  0  0  0
    1.9230    0.7490    2.2940 C   0  0  0  0  0  0  0  0  0  0  0  0
    0.9250    0.2280    1.5260 N   0  0  0  0  0  0  0  0  0  0  0  0
   -1.0230    6.1910    7.2210 C   0  0  0  0  0  0  0  0  0  0  0  0
   -2.5330    3.8500    7.2520 C   0  0  0  0  0  0  0  0  0  0  0  0
    3.3740    3.4010    2.3520 N   0  0  0  0  0  0  0  0  0  0  0  0
    1.1420   -0.9570    0.6890 C   0  0  0  0  0  0  0  0  0  0  0  0
   -0.4510    0.7190    1.4050 C   0  0  0  0  0  0  0  0  0  0  0  0
   -1.7700    1.7750    5.6320 O   0  0  0  0  0  0  0  0  0  0  0  0
    3.0660    0.2860    2.3510 O   0  0  0  0  0  0  0  0  0  0  0  0
   -2.8780    4.8820    8.0320 C   0  0  0  0  0  0  0  0  0  0  0  0
   -2.0940    6.0890    8.0120 C   0  0  0  0  0  0  0  0  0  0  0  0
    2.6860    5.5360    3.9870 C   0  0  0  0  0  0  0  0  0  0  0  0
    0.8720   -0.6560   -0.7920 C   0  0  2  0  0  0  0  0  0  0  0  0
   -0.7900    1.0920   -0.0450 C   0  0  1  0  0  0  0  0  0  0  0  0
   -0.5450   -0.1000   -0.9790 C   0  0  0  0  0  0  0  0  0  0  0  0
   -0.1620    7.3860    7.1370 C   0  0  0  0  0  0  0  0  0  0  0  0
    1.0810   -1.9060   -1.6460 C   0  0  0  0  0  0  0  0  0  0  0  0
   -2.2330    1.5810   -0.1570 C   0  0  0  0  0  0  0  0  0  0  0  0
    2.1350    6.5100    2.9570 C   0  0  0  0  0  0  0  0  0  0  0  0
    2.9150    7.8130    2.9690 C   0  0  0  0  0  0  0  0  0  0  0  0
    2.3750    8.7960    1.9440 C   0  0  0  0  0  0  0  0  0  0  0  0
   -0.0940    0.9700    3.9060 H   0  0  0  0  0  0  0  0  0  0  0  0
   -3.1340    2.9530    7.2830 H   0  0  0  0  0  0  0  0  0  0  0  0
    3.8820    4.2740    2.3690 H   0  0  0  0  0  0  0  0  0  0  0  0
    0.4710   -1.7500    1.0170 H   0  0  0  0  0  0  0  0  0  0  0  0
    2.1750   -1.2860    0.8010 H   0  0  0  0  0  0  0  0  0  0  0  0
   -0.5690    1.6010    2.0340 H   0  0  0  0  0  0  0  0  0  0  0  0
   -1.1360   -0.0600    1.7400 H   0  0  0  0  0  0  0  0  0  0  0  0
   -3.7430    4.8090    8.6750 H   0  0  0  0  0  0  0  0  0  0  0  0
   -2.3750    6.9200    8.6430 H   0  0  0  0  0  0  0  0  0  0  0  0
    3.7330    5.3350    3.7620 H   0  0  0  0  0  0  0  0  0  0  0  0
    2.6060    5.9830    4.9780 H   0  0  0  0  0  0  0  0  0  0  0  0
    1.5830    0.1020   -1.1220 H   0  0  0  0  0  0  0  0  0  0  0  0
   -0.1330    1.9070   -0.3500 H   0  0  0  0  0  0  0  0  0  0  0  0
   -1.2690   -0.8840   -0.7560 H   0  0  0  0  0  0  0  0  0  0  0  0
   -0.6680    0.2240   -2.0120 H   0  0  0  0  0  0  0  0  0  0  0  0
    0.6390    7.2070    6.4190 H   0  0  0  0  0  0  0  0  0  0  0  0
    0.2680    7.5940    8.1170 H   0  0  0  0  0  0  0  0  0  0  0  0
   -0.7570    8.2400    6.8130 H   0  0  0  0  0  0  0  0  0  0  0  0
    0.3800   -2.6800   -1.3340 H   0  0  0  0  0  0  0  0  0  0  0  0
    2.1020   -2.2670   -1.5180 H   0  0  0  0  0  0  0  0  0  0  0  0
    0.9110   -1.6620   -2.6950 H   0  0  0  0  0  0  0  0  0  0  0  0
   -2.9120    0.7830    0.1440 H   0  0  0  0  0  0  0  0  0  0  0  0
   -2.4410    1.8660   -1.1880 H   0  0  0  0  0  0  0  0  0  0  0  0
   -2.3760    2.4440    0.4940 H   0  0  0  0  0  0  0  0  0  0  0  0
    1.0900    6.7180    3.1860 H   0  0  0  0  0  0  0  0  0  0  0  0
    2.2070    6.0600    1.9670 H   0  0  0  0  0  0  0  0  0  0  0  0
    3.9600    7.6020    2.7410 H   0  0  0  0  0  0  0  0  0  0  0  0
    2.8420    8.2600    3.9610 H   0  0  0  0  0  0  0  0  0  0  0  0
    2.4440    8.3570    0.9490 H   0  0  0  0  0  0  0  0  0  0  0  0
    2.9610    9.7140    1.9770 H   0  0  0  0  0  0  0  0  0  0  0  0
    1.3330    9.0210    2.1710 H   0  0  0  0  0  0  0  0  0  0  0  0
  1  2  2  0  0  0  0
  1  4  1  0  0  0  0
  1  6  1  0  0  0  0
  2  9  1  0  0  0  0
  2 10  1  0  0  0  0
  3  8  1  0  0  0  0
  3 10  2  0  0  0  0
  3 11  1  0  0  0  0
  4  7  2  0  0  0  0
  5  7  1  0  0  0  0
  5  9  1  0  0  0  0
  5 14  1  0  0  0  0
  6  8  1  0  0  0  0
  6 22  1  0  0  0  0
  7 13  1  0  0  0  0
  8 15  2  0  0  0  0
  9 18  2  0  0  0  0
 10 32  1  0  0  0  0
 11 12  1  0  0  0  0
 11 19  2  0  0  0  0
 12 16  1  0  0  0  0
 12 17  1  0  0  0  0
 13 21  2  0  0  0  0
 13 26  1  0  0  0  0
 14 20  2  0  0  0  0
 14 33  1  0  0  0  0
 15 34  1  0  0  0  0
 16 23  1  0  0  0  0
 16 35  1  0  0  0  0
 16 36  1  0  0  0  0
 17 24  1  0  0  0  0
 17 37  1  0  0  0  0
 17 38  1  0  0  0  0
 20 21  1  0  0  0  0
 20 39  1  0  0  0  0
 21 40  1  0  0  0  0
 22 29  1  0  0  0  0
 22 41  1  0  0  0  0
 22 42  1  0  0  0  0
 23 25  1  0  0  0  0
 23 27  1  0  0  0  0
 23 43  1  6  0  0  0
 24 25  1  0  0  0  0
 24 28  1  0  0  0  0
 24 44  1  6  0  0  0
 25 45  1  0  0  0  0
 25 46  1  0  0  0  0
 26 47  1  0  0  0  0
 26 48  1  0  0  0  0
 26 49  1  0  0  0  0
 27 50  1  0  0  0  0
 27 51  1  0  0  0  0
 27 52  1  0  0  0  0
 28 53  1  0  0  0  0
 28 54  1  0  0  0  0
 28 55  1  0  0  0  0
 29 30  1  0  0  0  0
 29 56  1  0  0  0  0
 29 57  1  0  0  0  0
 30 31  1  0  0  0  0
 30 58  1  0  0  0  0
 30 59  1  0  0  0  0
 31 60  1  0  0  0  0
 31 61  1  0  0  0  0
 31 62  1  0  0  0  0
M  END
>  <$CLUSTER>
662

>  <INDEX>
356790

$$$$
