Cerep CER0136666
 OpenBabel04062209303D

 54 57  0  0  0  0  0  0  0  0999 V2000
   -0.9820    0.2830   -1.0830 N   0  0  0  0  0  0  0  0  0  0  0  0
    0.9820   -0.2830    1.0830 N   0  0  0  0  0  0  0  0  0  0  0  0
   -1.4800    0.3030   -2.3320 C   0  0  0  0  0  0  0  0  0  0  0  0
    1.5370   -0.2020    2.2870 C   0  0  0  0  0  0  0  0  0  0  0  0
   -3.9380   -1.8860   -4.3950 C   0  0  0  0  0  0  0  0  0  0  0  0
   -6.8010   -4.6160   -6.4710 C   0  0  0  0  0  0  0  0  0  0  0  0
   -4.4370   -1.8450   -5.6740 N   0  0  0  0  0  0  0  0  0  0  0  0
    2.3930    0.8310    2.5300 N   0  0  0  0  0  0  0  0  0  0  0  0
   -0.0330    1.3000   -0.5920 C   0  0  0  0  0  0  0  0  0  0  0  0
   -1.2520   -0.6880   -0.0050 C   0  0  0  0  0  0  0  0  0  0  0  0
    1.2520    0.6880    0.0050 C   0  0  0  0  0  0  0  0  0  0  0  0
    0.0330   -1.3000    0.5920 C   0  0  0  0  0  0  0  0  0  0  0  0
   -5.3340   -2.6870   -6.3470 C   0  0  0  0  0  0  0  0  0  0  0  0
   -5.9120   -3.8130   -5.7500 C   0  0  0  0  0  0  0  0  0  0  0  0
   -7.1200   -4.3060   -7.7910 C   0  0  0  0  0  0  0  0  0  0  0  0
   -1.1990    1.1580   -3.1770 O   0  0  0  0  0  0  0  0  0  0  0  0
   -2.4410   -0.8020   -2.6940 C   0  0  0  0  0  0  0  0  0  0  0  0
   -4.2440   -2.7630   -3.5790 O   0  0  0  0  0  0  0  0  0  0  0  0
   -6.5510   -3.1900   -8.3950 C   0  0  0  0  0  0  0  0  0  0  0  0
   -2.9870   -0.7690   -4.0790 C   0  0  0  0  0  0  0  0  0  0  0  0
   -5.6630   -2.3850   -7.6770 C   0  0  0  0  0  0  0  0  0  0  0  0
   -7.5430   -5.8160   -6.0110 C   0  0  0  0  0  0  0  0  0  0  0  0
    1.2600   -1.1390    3.2920 C   0  0  0  0  0  0  0  0  0  0  0  0
   -7.9720   -6.4240   -7.3490 C   0  0  0  0  0  0  0  0  0  0  0  0
    2.9670    0.9230    3.7580 C   0  0  0  0  0  0  0  0  0  0  0  0
   -8.1010   -5.2630   -8.3390 C   0  0  0  0  0  0  0  0  0  0  0  0
    1.8620   -1.0220    4.5460 C   0  0  0  0  0  0  0  0  0  0  0  0
    2.7350    0.0300    4.7900 C   0  0  0  0  0  0  0  0  0  0  0  0
   -4.0980   -1.0710   -6.2280 H   0  0  0  0  0  0  0  0  0  0  0  0
   -0.5260    1.8920    0.1790 H   0  0  0  0  0  0  0  0  0  0  0  0
    0.2450    1.9470   -1.4240 H   0  0  0  0  0  0  0  0  0  0  0  0
   -1.8650   -1.4940   -0.4090 H   0  0  0  0  0  0  0  0  0  0  0  0
   -1.7970   -0.1810    0.7910 H   0  0  0  0  0  0  0  0  0  0  0  0
    1.7970    0.1810   -0.7910 H   0  0  0  0  0  0  0  0  0  0  0  0
    1.8650    1.4940    0.4090 H   0  0  0  0  0  0  0  0  0  0  0  0
   -0.2450   -1.9470    1.4240 H   0  0  0  0  0  0  0  0  0  0  0  0
    0.5260   -1.8920   -0.1790 H   0  0  0  0  0  0  0  0  0  0  0  0
   -5.6700   -4.0630   -4.7280 H   0  0  0  0  0  0  0  0  0  0  0  0
   -3.2830   -0.7510   -2.0030 H   0  0  0  0  0  0  0  0  0  0  0  0
   -1.9210   -1.7510   -2.5640 H   0  0  0  0  0  0  0  0  0  0  0  0
   -6.7950   -2.9460   -9.4180 H   0  0  0  0  0  0  0  0  0  0  0  0
   -3.5130    0.1760   -4.2160 H   0  0  0  0  0  0  0  0  0  0  0  0
   -2.1510   -0.8250   -4.7770 H   0  0  0  0  0  0  0  0  0  0  0  0
   -5.2240   -1.5200   -8.1520 H   0  0  0  0  0  0  0  0  0  0  0  0
   -8.4040   -5.5450   -5.4000 H   0  0  0  0  0  0  0  0  0  0  0  0
   -6.8990   -6.4940   -5.4510 H   0  0  0  0  0  0  0  0  0  0  0  0
    0.5790   -1.9540    3.0960 H   0  0  0  0  0  0  0  0  0  0  0  0
   -8.9300   -6.9330   -7.2400 H   0  0  0  0  0  0  0  0  0  0  0  0
   -7.2210   -7.1330   -7.6970 H   0  0  0  0  0  0  0  0  0  0  0  0
    3.6460    1.7430    3.9400 H   0  0  0  0  0  0  0  0  0  0  0  0
   -7.8370   -5.5700   -9.3510 H   0  0  0  0  0  0  0  0  0  0  0  0
   -9.1080   -4.8470   -8.3370 H   0  0  0  0  0  0  0  0  0  0  0  0
    1.6500   -1.7440    5.3210 H   0  0  0  0  0  0  0  0  0  0  0  0
    3.2160    0.1470    5.7500 H   0  0  0  0  0  0  0  0  0  0  0  0
  1  3  1  0  0  0  0
  1  9  1  0  0  0  0
  1 10  1  0  0  0  0
  2  4  1  0  0  0  0
  2 11  1  0  0  0  0
  2 12  1  0  0  0  0
  3 16  2  0  0  0  0
  3 17  1  0  0  0  0
  4  8  2  0  0  0  0
  4 23  1  0  0  0  0
  5  7  1  0  0  0  0
  5 18  2  0  0  0  0
  5 20  1  0  0  0  0
  6 14  2  0  0  0  0
  6 15  1  0  0  0  0
  6 22  1  0  0  0  0
  7 13  1  0  0  0  0
  7 29  1  0  0  0  0
  8 25  1  0  0  0  0
  9 11  1  0  0  0  0
  9 30  1  0  0  0  0
  9 31  1  0  0  0  0
 10 12  1  0  0  0  0
 10 32  1  0  0  0  0
 10 33  1  0  0  0  0
 11 34  1  0  0  0  0
 11 35  1  0  0  0  0
 12 36  1  0  0  0  0
 12 37  1  0  0  0  0
 13 14  1  0  0  0  0
 13 21  2  0  0  0  0
 14 38  1  0  0  0  0
 15 19  2  0  0  0  0
 15 26  1  0  0  0  0
 17 20  1  0  0  0  0
 17 39  1  0  0  0  0
 17 40  1  0  0  0  0
 19 21  1  0  0  0  0
 19 41  1  0  0  0  0
 20 42  1  0  0  0  0
 20 43  1  0  0  0  0
 21 44  1  0  0  0  0
 22 24  1  0  0  0  0
 22 45  1  0  0  0  0
 22 46  1  0  0  0  0
 23 27  2  0  0  0  0
 23 47  1  0  0  0  0
 24 26  1  0  0  0  0
 24 48  1  0  0  0  0
 24 49  1  0  0  0  0
 25 28  2  0  0  0  0
 25 50  1  0  0  0  0
 26 51  1  0  0  0  0
 26 52  1  0  0  0  0
 27 28  1  0  0  0  0
 27 53  1  0  0  0  0
 28 54  1  0  0  0  0
M  END
>  <$CLUSTER>
986

>  <INDEX>
189598

$$$$
