Asinex BAS 02903336
 OpenBabel04062209303D

 47 50  0  0  0  0  0  0  0  0999 V2000
    0.2610   -2.1340    0.3860 S   0  0  0  0  0  0  0  0  0  0  0  0
    0.2590   -0.5190    0.9820 N   0  0  0  0  0  0  0  0  0  0  0  0
   -0.3480   -0.2630    2.3230 C   0  0  0  0  0  0  0  0  0  0  0  0
    0.4180    0.8290    3.0540 C   0  0  0  0  0  0  0  0  0  0  0  0
    3.1910    3.0310    5.7780 C   0  0  0  0  0  0  0  0  0  0  0  0
    0.7270   -3.0220    1.4350 O   0  0  0  0  0  0  0  0  0  0  0  0
    0.8640   -2.1850   -0.9330 O   0  0  0  0  0  0  0  0  0  0  0  0
   -1.4840   -2.4370    0.1900 C   0  0  0  0  0  0  0  0  0  0  0  0
    0.1640    0.5270   -0.0120 C   0  0  0  0  0  0  0  0  0  0  0  0
    2.2970    2.4200    4.8940 C   0  0  0  0  0  0  0  0  0  0  0  0
    1.3100    0.3760    3.9800 N   0  0  0  0  0  0  0  0  0  0  0  0
    3.9880    2.2590    6.6210 C   0  0  0  0  0  0  0  0  0  0  0  0
    3.4040    4.3480    5.9370 O   0  0  0  0  0  0  0  0  0  0  0  0
    4.7820    3.0030    7.3960 O   0  0  0  0  0  0  0  0  0  0  0  0
    2.1910    1.0260    4.8480 C   0  0  0  0  0  0  0  0  0  0  0  0
    4.4180    4.3350    6.9690 C   0  0  0  0  0  0  0  0  0  0  0  0
    0.2610    2.0340    2.8430 O   0  0  0  0  0  0  0  0  0  0  0  0
    3.8910    0.8720    6.5820 C   0  0  0  0  0  0  0  0  0  0  0  0
    1.3310    0.9320   -0.6700 C   0  0  0  0  0  0  0  0  0  0  0  0
   -1.0670    1.0810   -0.3800 C   0  0  0  0  0  0  0  0  0  0  0  0
    2.9980    0.2590    5.7010 C   0  0  0  0  0  0  0  0  0  0  0  0
    0.0450    2.4710   -2.0170 C   0  0  0  0  0  0  0  0  0  0  0  0
    1.2710    1.9070   -1.6650 C   0  0  0  0  0  0  0  0  0  0  0  0
   -1.1220    2.0560   -1.3770 C   0  0  0  0  0  0  0  0  0  0  0  0
   -0.0110    3.6650   -3.2300 Cl  0  0  0  0  0  0  0  0  0  0  0  0
   -2.2340   -2.9620    1.2520 C   0  0  0  0  0  0  0  0  0  0  0  0
   -2.1020   -2.1930   -1.0470 C   0  0  0  0  0  0  0  0  0  0  0  0
   -3.4620   -2.4580   -1.2100 C   0  0  0  0  0  0  0  0  0  0  0  0
   -3.5940   -3.2260    1.0810 C   0  0  0  0  0  0  0  0  0  0  0  0
   -4.2060   -2.9740   -0.1480 C   0  0  0  0  0  0  0  0  0  0  0  0
   -0.3160   -1.1800    2.9120 H   0  0  0  0  0  0  0  0  0  0  0  0
   -1.3840    0.0500    2.1940 H   0  0  0  0  0  0  0  0  0  0  0  0
    1.6850    3.0270    4.2430 H   0  0  0  0  0  0  0  0  0  0  0  0
    1.3400   -0.6310    4.0530 H   0  0  0  0  0  0  0  0  0  0  0  0
    4.0410    4.8840    7.8320 H   0  0  0  0  0  0  0  0  0  0  0  0
    5.3090    4.8310    6.5850 H   0  0  0  0  0  0  0  0  0  0  0  0
    4.5070    0.2690    7.2330 H   0  0  0  0  0  0  0  0  0  0  0  0
    2.2800    0.4880   -0.4070 H   0  0  0  0  0  0  0  0  0  0  0  0
   -1.9740    0.7540    0.1070 H   0  0  0  0  0  0  0  0  0  0  0  0
    2.9280   -0.8180    5.6760 H   0  0  0  0  0  0  0  0  0  0  0  0
    2.1750    2.2260   -2.1630 H   0  0  0  0  0  0  0  0  0  0  0  0
   -2.0710    2.4900   -1.6540 H   0  0  0  0  0  0  0  0  0  0  0  0
   -1.7600   -3.1620    2.2020 H   0  0  0  0  0  0  0  0  0  0  0  0
   -1.5250   -1.8010   -1.8710 H   0  0  0  0  0  0  0  0  0  0  0  0
   -3.9400   -2.2640   -2.1590 H   0  0  0  0  0  0  0  0  0  0  0  0
   -4.1730   -3.6260    1.9000 H   0  0  0  0  0  0  0  0  0  0  0  0
   -5.2580   -3.1790   -0.2770 H   0  0  0  0  0  0  0  0  0  0  0  0
  1  2  1  0  0  0  0
  1  6  2  0  0  0  0
  1  7  2  0  0  0  0
  1  8  1  0  0  0  0
  2  3  1  0  0  0  0
  2  9  1  0  0  0  0
  3  4  1  0  0  0  0
  3 31  1  0  0  0  0
  3 32  1  0  0  0  0
  4 11  1  0  0  0  0
  4 17  2  0  0  0  0
  5 10  2  0  0  0  0
  5 12  1  0  0  0  0
  5 13  1  0  0  0  0
  8 26  1  0  0  0  0
  8 27  2  0  0  0  0
  9 19  2  0  0  0  0
  9 20  1  0  0  0  0
 10 15  1  0  0  0  0
 10 33  1  0  0  0  0
 11 15  1  0  0  0  0
 11 34  1  0  0  0  0
 12 14  1  0  0  0  0
 12 18  2  0  0  0  0
 13 16  1  0  0  0  0
 14 16  1  0  0  0  0
 15 21  2  0  0  0  0
 16 35  1  0  0  0  0
 16 36  1  0  0  0  0
 18 21  1  0  0  0  0
 18 37  1  0  0  0  0
 19 23  1  0  0  0  0
 19 38  1  0  0  0  0
 20 24  2  0  0  0  0
 20 39  1  0  0  0  0
 21 40  1  0  0  0  0
 22 23  2  0  0  0  0
 22 24  1  0  0  0  0
 22 25  1  0  0  0  0
 23 41  1  0  0  0  0
 24 42  1  0  0  0  0
 26 29  2  0  0  0  0
 26 43  1  0  0  0  0
 27 28  1  0  0  0  0
 27 44  1  0  0  0  0
 28 30  2  0  0  0  0
 28 45  1  0  0  0  0
 29 30  1  0  0  0  0
 29 46  1  0  0  0  0
 30 47  1  0  0  0  0
M  END
>  <$CLUSTER>
94

>  <INDEX>
178545

$$$$
