Life Chemicals F0417-0114
 OpenBabel04062209303D

 42 44  0  0  0  0  0  0  0  0999 V2000
   -0.2220   -0.4340   -0.3220 C   0  0  0  0  0  0  0  0  0  0  0  0
    1.4300   -0.4350   -0.7590 S   0  0  0  0  0  0  0  0  0  0  0  0
   -0.8590    0.6840    0.1840 N   0  0  0  0  0  0  0  0  0  0  0  0
    1.2360   -2.0770   -1.2030 C   0  0  0  0  0  0  0  0  0  0  0  0
   -0.8270   -1.5900   -0.5100 N   0  0  0  0  0  0  0  0  0  0  0  0
    0.0230   -2.5510   -1.0250 N   0  0  0  0  0  0  0  0  0  0  0  0
   -0.2920    1.9310    0.4100 C   0  0  0  0  0  0  0  0  0  0  0  0
    0.7550   -4.5920   -3.2660 C   0  0  0  0  0  0  0  0  0  0  0  0
   -1.3120    2.8930    0.9700 C   0  0  0  0  0  0  0  0  0  0  0  0
    2.5570   -3.0380   -1.8420 S   0  0  0  0  0  0  0  0  0  0  0  0
   -0.5270   -4.3690   -2.8920 N   0  0  0  0  0  0  0  0  0  0  0  0
    0.8640    2.2920    0.2130 O   0  0  0  0  0  0  0  0  0  0  0  0
    1.1000   -4.6760   -4.4400 O   0  0  0  0  0  0  0  0  0  0  0  0
   -1.0450    4.2820    0.7530 C   0  0  0  0  0  0  0  0  0  0  0  0
   -2.4110    2.5310    1.7110 C   0  0  0  0  0  0  0  0  0  0  0  0
    1.7500   -4.6310   -2.1090 C   0  0  0  0  0  0  0  0  0  0  0  0
   -1.7170   -4.2570   -3.6250 C   0  0  0  0  0  0  0  0  0  0  0  0
   -3.0450    4.8500    1.9860 C   0  0  0  0  0  0  0  0  0  0  0  0
   -3.2870    3.4970    2.2140 C   0  0  0  0  0  0  0  0  0  0  0  0
   -1.9240    5.2430    1.2570 C   0  0  0  0  0  0  0  0  0  0  0  0
   -4.1260    6.0110    2.6020 Cl  0  0  0  0  0  0  0  0  0  0  0  0
   -4.1450   -4.0110   -5.0190 C   0  0  0  0  0  0  0  0  0  0  0  0
   -1.7430   -4.3350   -5.0210 C   0  0  0  0  0  0  0  0  0  0  0  0
   -2.9240   -4.0550   -2.9370 C   0  0  0  0  0  0  0  0  0  0  0  0
   -2.9530   -4.2110   -5.7130 C   0  0  0  0  0  0  0  0  0  0  0  0
   -4.1300   -3.9330   -3.6300 C   0  0  0  0  0  0  0  0  0  0  0  0
   -5.4330   -3.8800   -5.7620 C   0  0  0  0  0  0  0  0  0  0  0  0
   -1.8380    0.5830    0.4130 H   0  0  0  0  0  0  0  0  0  0  0  0
   -0.6490   -4.2630   -1.8950 H   0  0  0  0  0  0  0  0  0  0  0  0
   -0.1670    4.5860    0.2020 H   0  0  0  0  0  0  0  0  0  0  0  0
   -2.6000    1.4860    1.9070 H   0  0  0  0  0  0  0  0  0  0  0  0
    2.5130   -5.3780   -2.3280 H   0  0  0  0  0  0  0  0  0  0  0  0
    1.2190   -4.9110   -1.1990 H   0  0  0  0  0  0  0  0  0  0  0  0
   -4.1540    3.1940    2.7810 H   0  0  0  0  0  0  0  0  0  0  0  0
   -1.7350    6.2920    1.0820 H   0  0  0  0  0  0  0  0  0  0  0  0
   -0.8250   -4.4920   -5.5680 H   0  0  0  0  0  0  0  0  0  0  0  0
   -2.9200   -3.9930   -1.8590 H   0  0  0  0  0  0  0  0  0  0  0  0
   -2.9630   -4.2710   -6.7910 H   0  0  0  0  0  0  0  0  0  0  0  0
   -5.0510   -3.7780   -3.0880 H   0  0  0  0  0  0  0  0  0  0  0  0
   -5.2460   -3.9670   -6.8320 H   0  0  0  0  0  0  0  0  0  0  0  0
   -5.8780   -2.9080   -5.5490 H   0  0  0  0  0  0  0  0  0  0  0  0
   -6.1160   -4.6690   -5.4470 H   0  0  0  0  0  0  0  0  0  0  0  0
  1  2  1  0  0  0  0
  1  3  1  0  0  0  0
  1  5  2  0  0  0  0
  2  4  1  0  0  0  0
  3  7  1  0  0  0  0
  3 28  1  0  0  0  0
  4  6  2  0  0  0  0
  4 10  1  0  0  0  0
  5  6  1  0  0  0  0
  7  9  1  0  0  0  0
  7 12  2  0  0  0  0
  8 11  1  0  0  0  0
  8 13  2  0  0  0  0
  8 16  1  0  0  0  0
  9 14  1  0  0  0  0
  9 15  2  0  0  0  0
 10 16  1  0  0  0  0
 11 17  1  0  0  0  0
 11 29  1  0  0  0  0
 14 20  2  0  0  0  0
 14 30  1  0  0  0  0
 15 19  1  0  0  0  0
 15 31  1  0  0  0  0
 16 32  1  0  0  0  0
 16 33  1  0  0  0  0
 17 23  2  0  0  0  0
 17 24  1  0  0  0  0
 18 19  2  0  0  0  0
 18 20  1  0  0  0  0
 18 21  1  0  0  0  0
 19 34  1  0  0  0  0
 20 35  1  0  0  0  0
 22 25  2  0  0  0  0
 22 26  1  0  0  0  0
 22 27  1  0  0  0  0
 23 25  1  0  0  0  0
 23 36  1  0  0  0  0
 24 26  2  0  0  0  0
 24 37  1  0  0  0  0
 25 38  1  0  0  0  0
 26 39  1  0  0  0  0
 27 40  1  0  0  0  0
 27 41  1  0  0  0  0
 27 42  1  0  0  0  0
M  END
>  <$CLUSTER>
406

>  <INDEX>
270131

$$$$
