Toslab 44086
 OpenBabel04062209303D

 51 53  0  0  1  0  0  0  0  0999 V2000
   -0.1530   -0.7930   -0.6690 C   0  0  0  0  0  0  0  0  0  0  0  0
    0.5800    0.2920   -0.2280 N   0  0  0  0  0  0  0  0  0  0  0  0
    0.1670   -1.0100   -1.9320 N   0  0  0  0  0  0  0  0  0  0  0  0
    1.3580    0.7240   -1.2450 N   0  0  0  0  0  0  0  0  0  0  0  0
    1.0970   -0.0690   -2.2690 N   0  0  0  0  0  0  0  0  0  0  0  0
   -1.1380   -1.6010    0.1020 C   0  0  2  0  0  0  0  0  0  0  0  0
   -0.9130   -3.0680   -0.0970 N   0  3  0  0  0  0  0  0  0  0  0  0
    0.6350    0.9730    1.0750 C   0  0  0  0  0  0  0  0  0  0  0  0
   -2.5670   -1.2940   -0.3370 C   0  0  0  0  0  0  0  0  0  0  0  0
   -3.5810   -1.0860    0.6680 C   0  0  0  0  0  0  0  0  0  0  0  0
   -3.0030   -1.2300   -1.6700 C   0  0  0  0  0  0  0  0  0  0  0  0
   -4.3280   -0.9560   -2.0110 C   0  0  0  0  0  0  0  0  0  0  0  0
   -4.9050   -0.8120    0.3240 C   0  0  0  0  0  0  0  0  0  0  0  0
   -5.2780   -0.7460   -1.0170 C   0  0  0  0  0  0  0  0  0  0  0  0
   -0.8180   -3.6140   -1.5000 C   0  0  0  0  0  0  0  0  0  0  0  0
    0.2680   -3.6010    0.7360 C   0  0  0  0  0  0  0  0  0  0  0  0
    1.2740    0.0480    2.1270 C   0  0  0  0  0  0  0  0  0  0  0  0
   -0.7670    1.4240    1.5300 C   0  0  0  0  0  0  0  0  0  0  0  0
    1.5080    2.2550    1.0070 C   0  0  0  0  0  0  0  0  0  0  0  0
   -6.6950   -0.4480   -1.3820 C   0  0  0  0  0  0  0  0  0  0  0  0
    0.3710   -5.1040    0.6870 C   0  0  0  0  0  0  0  0  0  0  0  0
   -0.7360   -5.0770   -1.5750 C   0  0  0  0  0  0  0  0  0  0  0  0
    0.4310   -5.6100   -0.7510 C   0  0  0  0  0  0  0  0  0  0  0  0
   -0.9990   -1.3370    1.1500 H   0  0  0  0  0  0  0  0  0  0  0  0
   -1.7980   -3.4220    0.2370 H   0  0  0  0  0  0  0  0  0  0  0  0
   -3.3090   -1.1440    1.7110 H   0  0  0  0  0  0  0  0  0  0  0  0
   -2.2870   -1.3990   -2.4600 H   0  0  0  0  0  0  0  0  0  0  0  0
   -4.6170   -0.9070   -3.0500 H   0  0  0  0  0  0  0  0  0  0  0  0
   -5.6410   -0.6510    1.0980 H   0  0  0  0  0  0  0  0  0  0  0  0
    0.0740   -3.1980   -1.9680 H   0  0  0  0  0  0  0  0  0  0  0  0
   -1.7020   -3.2930   -2.0520 H   0  0  0  0  0  0  0  0  0  0  0  0
    0.1330   -3.2930    1.7730 H   0  0  0  0  0  0  0  0  0  0  0  0
    1.1920   -3.1740    0.3470 H   0  0  0  0  0  0  0  0  0  0  0  0
    0.6900   -0.8690    2.2070 H   0  0  0  0  0  0  0  0  0  0  0  0
    1.2920    0.5530    3.0930 H   0  0  0  0  0  0  0  0  0  0  0  0
    2.2930   -0.1960    1.8260 H   0  0  0  0  0  0  0  0  0  0  0  0
   -1.4240    0.5570    1.5950 H   0  0  0  0  0  0  0  0  0  0  0  0
   -1.1720    2.1340    0.8090 H   0  0  0  0  0  0  0  0  0  0  0  0
   -0.6960    1.9000    2.5080 H   0  0  0  0  0  0  0  0  0  0  0  0
    2.5160    1.9910    0.6880 H   0  0  0  0  0  0  0  0  0  0  0  0
    1.5480    2.7200    1.9920 H   0  0  0  0  0  0  0  0  0  0  0  0
    1.0720    2.9540    0.2930 H   0  0  0  0  0  0  0  0  0  0  0  0
   -6.7960   -0.4370   -2.4670 H   0  0  0  0  0  0  0  0  0  0  0  0
   -6.9760    0.5260   -0.9810 H   0  0  0  0  0  0  0  0  0  0  0  0
   -7.3470   -1.2150   -0.9640 H   0  0  0  0  0  0  0  0  0  0  0  0
   -0.5010   -5.5360    1.1790 H   0  0  0  0  0  0  0  0  0  0  0  0
    1.2750   -5.4150    1.2110 H   0  0  0  0  0  0  0  0  0  0  0  0
   -0.6000   -5.3720   -2.6150 H   0  0  0  0  0  0  0  0  0  0  0  0
   -1.6640   -5.5040   -1.1950 H   0  0  0  0  0  0  0  0  0  0  0  0
    0.3940   -6.6990   -0.7460 H   0  0  0  0  0  0  0  0  0  0  0  0
    1.3660   -5.2800   -1.2050 H   0  0  0  0  0  0  0  0  0  0  0  0
  1  2  1  0  0  0  0
  1  3  2  0  0  0  0
  1  6  1  0  0  0  0
  2  4  1  0  0  0  0
  2  8  1  0  0  0  0
  3  5  1  0  0  0  0
  4  5  2  0  0  0  0
  6  7  1  0  0  0  0
  6  9  1  0  0  0  0
  6 24  1  1  0  0  0
  7 15  1  0  0  0  0
  7 16  1  0  0  0  0
  7 25  1  0  0  0  0
  8 17  1  0  0  0  0
  8 18  1  0  0  0  0
  8 19  1  0  0  0  0
  9 10  1  0  0  0  0
  9 11  2  0  0  0  0
 10 13  2  0  0  0  0
 10 26  1  0  0  0  0
 11 12  1  0  0  0  0
 11 27  1  0  0  0  0
 12 14  2  0  0  0  0
 12 28  1  0  0  0  0
 13 14  1  0  0  0  0
 13 29  1  0  0  0  0
 14 20  1  0  0  0  0
 15 22  1  0  0  0  0
 15 30  1  0  0  0  0
 15 31  1  0  0  0  0
 16 21  1  0  0  0  0
 16 32  1  0  0  0  0
 16 33  1  0  0  0  0
 17 34  1  0  0  0  0
 17 35  1  0  0  0  0
 17 36  1  0  0  0  0
 18 37  1  0  0  0  0
 18 38  1  0  0  0  0
 18 39  1  0  0  0  0
 19 40  1  0  0  0  0
 19 41  1  0  0  0  0
 19 42  1  0  0  0  0
 20 43  1  0  0  0  0
 20 44  1  0  0  0  0
 20 45  1  0  0  0  0
 21 23  1  0  0  0  0
 21 46  1  0  0  0  0
 21 47  1  0  0  0  0
 22 23  1  0  0  0  0
 22 48  1  0  0  0  0
 22 49  1  0  0  0  0
 23 50  1  0  0  0  0
 23 51  1  0  0  0  0
M  CHG  1   7   1
M  END
>  <$CLUSTER>
221

>  <INDEX>
479862

$$$$
