Life Chemicals F1359-1195
 OpenBabel04062209303D

 43 45  0  0  0  0  0  0  0  0999 V2000
   -0.9940   -1.2820    0.0970 C   0  0  0  0  0  0  0  0  0  0  0  0
   -1.7080   -2.2560    0.5630 N   0  0  0  0  0  0  0  0  0  0  0  0
    2.2370    3.6390   -2.7620 S   0  0  0  0  0  0  0  0  0  0  0  0
   -0.0150   -0.5890    0.7950 N   0  0  0  0  0  0  0  0  0  0  0  0
   -1.1380   -0.6290   -1.5730 S   0  0  0  0  0  0  0  0  0  0  0  0
    0.1280    0.5670   -1.2450 C   0  0  0  0  0  0  0  0  0  0  0  0
    0.6060    0.4420    0.0580 C   0  0  0  0  0  0  0  0  0  0  0  0
   -2.7100   -2.8920   -0.3020 C   0  0  0  0  0  0  0  0  0  0  0  0
    1.6180    2.3880   -1.6870 C   0  0  0  0  0  0  0  0  0  0  0  0
    0.6160    1.5250   -2.1280 C   0  0  0  0  0  0  0  0  0  0  0  0
   -3.4300   -3.9670    0.3620 C   0  0  0  0  0  0  0  0  0  0  0  0
    1.6090    1.3130    0.4930 C   0  0  0  0  0  0  0  0  0  0  0  0
    1.2120    3.9390   -3.7480 O   0  0  0  0  0  0  0  0  0  0  0  0
    2.8120    4.7070   -1.9640 O   0  0  0  0  0  0  0  0  0  0  0  0
    3.4920    2.8690   -3.5590 N   0  0  0  0  0  0  0  0  0  0  0  0
   -2.8620   -2.5030   -1.4460 O   0  0  0  0  0  0  0  0  0  0  0  0
    2.1120    2.2830   -0.3820 C   0  0  0  0  0  0  0  0  0  0  0  0
   -3.9920   -4.9350   -0.5210 C   0  0  0  0  0  0  0  0  0  0  0  0
    0.3340   -0.8780    2.1810 C   0  0  0  0  0  0  0  0  0  0  0  0
   -4.7360   -5.9950    0.0020 C   0  0  0  0  0  0  0  0  0  0  0  0
   -5.3990   -7.1760   -1.0300 Cl  0  0  0  0  0  0  0  0  0  0  0  0
   -3.6610   -4.0650    1.7120 C   0  0  0  0  0  0  0  0  0  0  0  0
   -4.4070   -5.1260    2.2300 C   0  0  0  0  0  0  0  0  0  0  0  0
   -0.0760   -0.3080    4.4990 O   0  0  0  0  0  0  0  0  0  0  0  0
   -4.9420   -6.0900    1.3770 C   0  0  0  0  0  0  0  0  0  0  0  0
   -0.4590    0.0070    3.1310 C   0  0  0  0  0  0  0  0  0  0  0  0
   -0.7930    0.5010    5.4380 C   0  0  0  0  0  0  0  0  0  0  0  0
    0.2270    1.5980   -3.1330 H   0  0  0  0  0  0  0  0  0  0  0  0
    1.9940    1.2380    1.4990 H   0  0  0  0  0  0  0  0  0  0  0  0
    3.1220    2.1180   -4.1240 H   0  0  0  0  0  0  0  0  0  0  0  0
    4.1400    2.4920   -2.8820 H   0  0  0  0  0  0  0  0  0  0  0  0
    2.8880    2.9560   -0.0470 H   0  0  0  0  0  0  0  0  0  0  0  0
   -3.8430   -4.8490   -1.5870 H   0  0  0  0  0  0  0  0  0  0  0  0
    1.3990   -0.6960    2.3270 H   0  0  0  0  0  0  0  0  0  0  0  0
    0.1110   -1.9230    2.3960 H   0  0  0  0  0  0  0  0  0  0  0  0
   -3.2620   -3.3150    2.3790 H   0  0  0  0  0  0  0  0  0  0  0  0
   -4.5700   -5.2000    3.2950 H   0  0  0  0  0  0  0  0  0  0  0  0
   -5.5160   -6.9100    1.7820 H   0  0  0  0  0  0  0  0  0  0  0  0
   -1.5250   -0.1770    2.9980 H   0  0  0  0  0  0  0  0  0  0  0  0
   -0.2420    1.0550    2.9220 H   0  0  0  0  0  0  0  0  0  0  0  0
   -0.4850    0.2420    6.4510 H   0  0  0  0  0  0  0  0  0  0  0  0
   -1.8630    0.3240    5.3270 H   0  0  0  0  0  0  0  0  0  0  0  0
   -0.5770    1.5530    5.2500 H   0  0  0  0  0  0  0  0  0  0  0  0
  1  2  2  0  0  0  0
  1  4  1  0  0  0  0
  1  5  1  0  0  0  0
  2  8  1  0  0  0  0
  3  9  1  0  0  0  0
  3 13  2  0  0  0  0
  3 14  2  0  0  0  0
  3 15  1  0  0  0  0
  4  7  1  0  0  0  0
  4 19  1  0  0  0  0
  5  6  1  0  0  0  0
  6  7  1  0  0  0  0
  6 10  2  0  0  0  0
  7 12  2  0  0  0  0
  8 11  1  0  0  0  0
  8 16  2  0  0  0  0
  9 10  1  0  0  0  0
  9 17  2  0  0  0  0
 10 28  1  0  0  0  0
 11 18  2  0  0  0  0
 11 22  1  0  0  0  0
 12 17  1  0  0  0  0
 12 29  1  0  0  0  0
 15 30  1  0  0  0  0
 15 31  1  0  0  0  0
 17 32  1  0  0  0  0
 18 20  1  0  0  0  0
 18 33  1  0  0  0  0
 19 26  1  0  0  0  0
 19 34  1  0  0  0  0
 19 35  1  0  0  0  0
 20 21  1  0  0  0  0
 20 25  2  0  0  0  0
 22 23  2  0  0  0  0
 22 36  1  0  0  0  0
 23 25  1  0  0  0  0
 23 37  1  0  0  0  0
 24 26  1  0  0  0  0
 24 27  1  0  0  0  0
 25 38  1  0  0  0  0
 26 39  1  0  0  0  0
 26 40  1  0  0  0  0
 27 41  1  0  0  0  0
 27 42  1  0  0  0  0
 27 43  1  0  0  0  0
M  END
>  <$CLUSTER>
444

>  <INDEX>
292670

$$$$
