Pyxis Discovery PYX 00003417
 OpenBabel04062209303D

 54 58  0  0  0  0  0  0  0  0999 V2000
   -0.4240    1.7770    0.1550 C   0  0  0  0  0  0  0  0  0  0  0  0
    0.8880    1.5850   -0.1950 C   0  0  0  0  0  0  0  0  0  0  0  0
   -0.9910    0.5240    0.2770 N   0  0  0  0  0  0  0  0  0  0  0  0
   -0.9830    3.0160    0.3790 N   0  0  0  0  0  0  0  0  0  0  0  0
   -0.0320   -0.4410    0.1560 N   0  0  0  0  0  0  0  0  0  0  0  0
    1.0980    0.1930   -0.1990 C   0  0  0  0  0  0  0  0  0  0  0  0
    1.7120    2.7200   -0.4030 C   0  0  0  0  0  0  0  0  0  0  0  0
    1.2180    3.9560   -0.2400 C   0  0  0  0  0  0  0  0  0  0  0  0
   -0.2040    4.1560    0.1810 C   0  0  0  0  0  0  0  0  0  0  0  0
    2.3130   -0.5610   -0.4890 C   0  0  0  0  0  0  0  0  0  0  0  0
   -2.3430    0.1360    0.4890 C   0  0  0  0  0  0  0  0  0  0  0  0
   -0.6330    5.2950    0.3450 O   0  0  0  0  0  0  0  0  0  0  0  0
    2.6860   -1.6410    0.3240 C   0  0  0  0  0  0  0  0  0  0  0  0
    3.1130   -0.2320   -1.5920 C   0  0  0  0  0  0  0  0  0  0  0  0
    1.6910    6.0240   -1.5920 N   0  3  0  0  0  0  0  0  0  0  0  0
    2.0890    5.1960   -0.4230 C   0  0  0  0  0  0  0  0  0  0  0  0
    4.6370   -2.0310   -1.0500 C   0  0  0  0  0  0  0  0  0  0  0  0
    4.2710   -0.9640   -1.8680 C   0  0  0  0  0  0  0  0  0  0  0  0
    3.8450   -2.3700    0.0450 C   0  0  0  0  0  0  0  0  0  0  0  0
    5.7560   -2.6760   -1.3790 F   0  0  0  0  0  0  0  0  0  0  0  0
    1.9450    7.9450   -3.0450 C   0  0  0  0  0  0  0  0  0  0  0  0
    2.4840    7.2280   -1.8250 C   0  0  0  0  0  0  0  0  0  0  0  0
   -3.4100    0.9970    0.2070 C   0  0  0  0  0  0  0  0  0  0  0  0
   -2.6170   -1.1610    0.9530 C   0  0  0  0  0  0  0  0  0  0  0  0
    2.4610    7.6770   -4.3270 C   0  0  0  0  0  0  0  0  0  0  0  0
    0.9540    8.9370   -2.9210 C   0  0  0  0  0  0  0  0  0  0  0  0
   -4.7270    0.5770    0.4200 C   0  0  0  0  0  0  0  0  0  0  0  0
   -3.9350   -1.5720    1.1660 C   0  0  0  0  0  0  0  0  0  0  0  0
    1.9730    8.3490   -5.4500 C   0  0  0  0  0  0  0  0  0  0  0  0
    0.4680    9.6070   -4.0450 C   0  0  0  0  0  0  0  0  0  0  0  0
   -4.9900   -0.7020    0.9040 C   0  0  0  0  0  0  0  0  0  0  0  0
    0.9780    9.3140   -5.3080 C   0  0  0  0  0  0  0  0  0  0  0  0
   -1.9430    3.0980    0.6820 H   0  0  0  0  0  0  0  0  0  0  0  0
    2.7440    2.5880   -0.6940 H   0  0  0  0  0  0  0  0  0  0  0  0
    2.0730   -1.9110    1.1710 H   0  0  0  0  0  0  0  0  0  0  0  0
    2.8330    0.5920   -2.2320 H   0  0  0  0  0  0  0  0  0  0  0  0
    0.7310    6.3080   -1.4570 H   0  0  0  0  0  0  0  0  0  0  0  0
    1.7580    5.4460   -2.4170 H   0  0  0  0  0  0  0  0  0  0  0  0
    3.1220    4.8770   -0.5600 H   0  0  0  0  0  0  0  0  0  0  0  0
    2.0140    5.8080    0.4760 H   0  0  0  0  0  0  0  0  0  0  0  0
    4.8840   -0.7020   -2.7180 H   0  0  0  0  0  0  0  0  0  0  0  0
    4.1270   -3.1970    0.6790 H   0  0  0  0  0  0  0  0  0  0  0  0
    3.5250    6.9530   -1.9930 H   0  0  0  0  0  0  0  0  0  0  0  0
    2.4170    7.8830   -0.9570 H   0  0  0  0  0  0  0  0  0  0  0  0
   -3.2160    1.9880   -0.1760 H   0  0  0  0  0  0  0  0  0  0  0  0
   -1.8040   -1.8450    1.1460 H   0  0  0  0  0  0  0  0  0  0  0  0
    3.2440    6.9420   -4.4440 H   0  0  0  0  0  0  0  0  0  0  0  0
    0.5650    9.1830   -1.9440 H   0  0  0  0  0  0  0  0  0  0  0  0
   -5.5450    1.2490    0.2080 H   0  0  0  0  0  0  0  0  0  0  0  0
   -4.1360   -2.5670    1.5350 H   0  0  0  0  0  0  0  0  0  0  0  0
    2.3670    8.1200   -6.4290 H   0  0  0  0  0  0  0  0  0  0  0  0
   -0.3050   10.3540   -3.9350 H   0  0  0  0  0  0  0  0  0  0  0  0
   -6.0080   -1.0180    1.0750 H   0  0  0  0  0  0  0  0  0  0  0  0
    0.6020    9.8350   -6.1760 H   0  0  0  0  0  0  0  0  0  0  0  0
  1  2  2  0  0  0  0
  1  3  1  0  0  0  0
  1  4  1  0  0  0  0
  2  6  1  0  0  0  0
  2  7  1  0  0  0  0
  3  5  1  0  0  0  0
  3 11  1  0  0  0  0
  4  9  1  0  0  0  0
  4 33  1  0  0  0  0
  5  6  2  0  0  0  0
  6 10  1  0  0  0  0
  7  8  2  0  0  0  0
  7 34  1  0  0  0  0
  8  9  1  0  0  0  0
  8 16  1  0  0  0  0
  9 12  2  0  0  0  0
 10 13  1  0  0  0  0
 10 14  2  0  0  0  0
 11 23  2  0  0  0  0
 11 24  1  0  0  0  0
 13 19  2  0  0  0  0
 13 35  1  0  0  0  0
 14 18  1  0  0  0  0
 14 36  1  0  0  0  0
 15 16  1  0  0  0  0
 15 22  1  0  0  0  0
 15 37  1  0  0  0  0
 15 38  1  0  0  0  0
 16 39  1  0  0  0  0
 16 40  1  0  0  0  0
 17 18  2  0  0  0  0
 17 19  1  0  0  0  0
 17 20  1  0  0  0  0
 18 41  1  0  0  0  0
 19 42  1  0  0  0  0
 21 22  1  0  0  0  0
 21 25  2  0  0  0  0
 21 26  1  0  0  0  0
 22 43  1  0  0  0  0
 22 44  1  0  0  0  0
 23 27  1  0  0  0  0
 23 45  1  0  0  0  0
 24 28  2  0  0  0  0
 24 46  1  0  0  0  0
 25 29  1  0  0  0  0
 25 47  1  0  0  0  0
 26 30  2  0  0  0  0
 26 48  1  0  0  0  0
 27 31  2  0  0  0  0
 27 49  1  0  0  0  0
 28 31  1  0  0  0  0
 28 50  1  0  0  0  0
 29 32  2  0  0  0  0
 29 51  1  0  0  0  0
 30 32  1  0  0  0  0
 30 52  1  0  0  0  0
 31 53  1  0  0  0  0
 32 54  1  0  0  0  0
M  CHG  1  15   1
M  END
>  <$CLUSTER>
274

>  <INDEX>
614360

$$$$
