Asinex ASN 09961559
 OpenBabel04062209303D

 52 55  0  0  0  0  0  0  0  0999 V2000
   -0.5080   -0.9980   -0.0200 N   0  0  0  0  0  0  0  0  0  0  0  0
    4.1770    5.0520   -0.3960 C   0  0  0  0  0  0  0  0  0  0  0  0
    3.6430    3.8580   -0.5210 N   0  0  0  0  0  0  0  0  0  0  0  0
   -1.8530   -1.3230    0.0770 C   0  0  0  0  0  0  0  0  0  0  0  0
    5.4510    5.3470   -0.8720 N   0  0  0  0  0  0  0  0  0  0  0  0
    0.0400    0.2990    0.0160 C   0  0  0  0  0  0  0  0  0  0  0  0
    2.3750    3.8590    0.0390 C   0  0  0  0  0  0  0  0  0  0  0  0
    6.1100    6.5660   -0.7930 C   0  0  0  0  0  0  0  0  0  0  0  0
    3.2190    6.2340    0.3920 S   0  0  0  0  0  0  0  0  0  0  0  0
    1.4250    0.2390   -0.1100 C   0  0  0  0  0  0  0  0  0  0  0  0
    1.9780    5.0630    0.5900 C   0  0  0  0  0  0  0  0  0  0  0  0
    0.6030   -1.9620   -0.1800 C   0  0  0  0  0  0  0  0  0  0  0  0
    1.5570    2.6270    0.0340 C   0  0  0  0  0  0  0  0  0  0  0  0
    2.2010    1.3950   -0.1030 C   0  0  0  0  0  0  0  0  0  0  0  0
   -0.6050    1.5160    0.1520 C   0  0  0  0  0  0  0  0  0  0  0  0
   -2.7690   -0.5130    0.2100 O   0  0  0  0  0  0  0  0  0  0  0  0
    1.9100   -1.1660   -0.2440 C   0  0  0  0  0  0  0  0  0  0  0  0
    5.7170    7.6170   -0.2960 O   0  0  0  0  0  0  0  0  0  0  0  0
    0.1630    2.6870    0.1600 C   0  0  0  0  0  0  0  0  0  0  0  0
    7.4760    6.4810   -1.4280 C   0  0  0  0  0  0  0  0  0  0  0  0
   -2.1640   -2.8020    0.0080 C   0  0  0  0  0  0  0  0  0  0  0  0
    8.4490    5.6490   -0.5690 C   0  0  0  0  0  0  0  0  0  0  0  0
    8.0940    7.8690   -1.6830 C   0  0  0  0  0  0  0  0  0  0  0  0
   -1.9100   -3.3310   -1.4180 C   0  0  0  0  0  0  0  0  0  0  0  0
   -3.5580   -3.1500    0.4660 C   0  0  0  0  0  0  0  0  0  0  0  0
    9.8120    6.1170   -1.1870 C   0  0  0  0  0  0  0  0  0  0  0  0
    9.5910    7.4680   -1.8630 C   0  0  0  0  0  0  0  0  0  0  0  0
    5.9490    4.5930   -1.3230 H   0  0  0  0  0  0  0  0  0  0  0  0
    1.0290    5.2410    1.0730 H   0  0  0  0  0  0  0  0  0  0  0  0
    0.4700   -2.5310   -1.1000 H   0  0  0  0  0  0  0  0  0  0  0  0
    0.6260   -2.6450    0.6690 H   0  0  0  0  0  0  0  0  0  0  0  0
    3.2750    1.3400   -0.2010 H   0  0  0  0  0  0  0  0  0  0  0  0
   -1.6800    1.5620    0.2500 H   0  0  0  0  0  0  0  0  0  0  0  0
    2.5780   -1.4340    0.5750 H   0  0  0  0  0  0  0  0  0  0  0  0
    2.4210   -1.3200   -1.1940 H   0  0  0  0  0  0  0  0  0  0  0  0
   -0.3240    3.6450    0.2640 H   0  0  0  0  0  0  0  0  0  0  0  0
    7.3260    5.9870   -2.3880 H   0  0  0  0  0  0  0  0  0  0  0  0
   -1.4890   -3.2940    0.7090 H   0  0  0  0  0  0  0  0  0  0  0  0
    8.2910    4.5780   -0.6980 H   0  0  0  0  0  0  0  0  0  0  0  0
    8.3750    5.9020    0.4890 H   0  0  0  0  0  0  0  0  0  0  0  0
    7.9530    8.5370   -0.8330 H   0  0  0  0  0  0  0  0  0  0  0  0
    7.6890    8.3340   -2.5820 H   0  0  0  0  0  0  0  0  0  0  0  0
   -2.5870   -2.8370   -2.1150 H   0  0  0  0  0  0  0  0  0  0  0  0
   -2.0850   -4.4070   -1.4430 H   0  0  0  0  0  0  0  0  0  0  0  0
   -0.8790   -3.1240   -1.7040 H   0  0  0  0  0  0  0  0  0  0  0  0
   -4.2860   -2.6850   -0.1990 H   0  0  0  0  0  0  0  0  0  0  0  0
   -3.7080   -2.7850    1.4820 H   0  0  0  0  0  0  0  0  0  0  0  0
   -3.6870   -4.2320    0.4460 H   0  0  0  0  0  0  0  0  0  0  0  0
   10.1530    5.3880   -1.9220 H   0  0  0  0  0  0  0  0  0  0  0  0
   10.5590    6.2160   -0.4000 H   0  0  0  0  0  0  0  0  0  0  0  0
   10.2320    8.2200   -1.4020 H   0  0  0  0  0  0  0  0  0  0  0  0
    9.8270    7.3920   -2.9240 H   0  0  0  0  0  0  0  0  0  0  0  0
  1  4  1  0  0  0  0
  1  6  1  0  0  0  0
  1 12  1  0  0  0  0
  2  3  2  0  0  0  0
  2  5  1  0  0  0  0
  2  9  1  0  0  0  0
  3  7  1  0  0  0  0
  4 16  2  0  0  0  0
  4 21  1  0  0  0  0
  5  8  1  0  0  0  0
  5 28  1  0  0  0  0
  6 10  1  0  0  0  0
  6 15  2  0  0  0  0
  7 11  2  0  0  0  0
  7 13  1  0  0  0  0
  8 18  2  0  0  0  0
  8 20  1  0  0  0  0
  9 11  1  0  0  0  0
 10 14  2  0  0  0  0
 10 17  1  0  0  0  0
 11 29  1  0  0  0  0
 12 17  1  0  0  0  0
 12 30  1  0  0  0  0
 12 31  1  0  0  0  0
 13 14  1  0  0  0  0
 13 19  2  0  0  0  0
 14 32  1  0  0  0  0
 15 19  1  0  0  0  0
 15 33  1  0  0  0  0
 17 34  1  0  0  0  0
 17 35  1  0  0  0  0
 19 36  1  0  0  0  0
 20 22  1  0  0  0  0
 20 23  1  0  0  0  0
 20 37  1  0  0  0  0
 21 24  1  0  0  0  0
 21 25  1  0  0  0  0
 21 38  1  0  0  0  0
 22 26  1  0  0  0  0
 22 39  1  0  0  0  0
 22 40  1  0  0  0  0
 23 27  1  0  0  0  0
 23 41  1  0  0  0  0
 23 42  1  0  0  0  0
 24 43  1  0  0  0  0
 24 44  1  0  0  0  0
 24 45  1  0  0  0  0
 25 46  1  0  0  0  0
 25 47  1  0  0  0  0
 25 48  1  0  0  0  0
 26 27  1  0  0  0  0
 26 49  1  0  0  0  0
 26 50  1  0  0  0  0
 27 51  1  0  0  0  0
 27 52  1  0  0  0  0
M  END
>  <$CLUSTER>
939

>  <INDEX>
171136

$$$$
