Pyxis Discovery PYX 00004219
 OpenBabel04062209303D

 52 55  0  0  1  0  0  0  0  0999 V2000
    2.0480    1.0200   -2.2950 N   0  0  0  0  0  0  0  0  0  0  0  0
    2.0940    0.1380   -1.3410 C   0  0  0  0  0  0  0  0  0  0  0  0
    3.2970    0.8770   -2.8250 C   0  0  0  0  0  0  0  0  0  0  0  0
   -0.4340    0.6700    1.4780 N   0  0  0  0  0  0  0  0  0  0  0  0
    4.0750   -0.0360   -2.2380 N   0  0  0  0  0  0  0  0  0  0  0  0
   -0.2500    0.8050    2.8250 C   0  0  0  0  0  0  0  0  0  0  0  0
    3.2520   -0.5390   -1.2250 O   0  0  0  0  0  0  0  0  0  0  0  0
    1.0020   -0.2230   -0.3360 C   0  0  1  0  0  0  0  0  0  0  0  0
    0.6330    0.9910    0.5280 C   0  0  0  0  0  0  0  0  0  0  0  0
   -1.4190    0.4440    3.7060 C   0  0  0  0  0  0  0  0  0  0  0  0
    3.7290    1.6970   -3.9750 C   0  0  0  0  0  0  0  0  0  0  0  0
    2.8550    2.6380   -4.5400 C   0  0  0  0  0  0  0  0  0  0  0  0
    3.2560    3.4180   -5.6280 C   0  0  0  0  0  0  0  0  0  0  0  0
    0.7980    1.1960    3.3450 O   0  0  0  0  0  0  0  0  0  0  0  0
    4.5330    3.2680   -6.1640 C   0  0  0  0  0  0  0  0  0  0  0  0
   -2.3850   -0.4640    3.2930 C   0  0  0  0  0  0  0  0  0  0  0  0
    5.0120    1.5560   -4.5250 C   0  0  0  0  0  0  0  0  0  0  0  0
    5.4100    2.3380   -5.6130 C   0  0  0  0  0  0  0  0  0  0  0  0
   -1.6430    0.2130    0.7930 C   0  0  0  0  0  0  0  0  0  0  0  0
   -3.4500   -0.7700    4.1440 C   0  0  0  0  0  0  0  0  0  0  0  0
    2.4500    4.3630   -6.2340 O   0  0  0  0  0  0  0  0  0  0  0  0
   -4.4210   -1.6280    3.8250 F   0  0  0  0  0  0  0  0  0  0  0  0
   -0.2390   -0.7680   -1.0550 C   0  0  0  0  0  0  0  0  0  0  0  0
    4.8380    4.0790   -7.2340 O   0  0  0  0  0  0  0  0  0  0  0  0
   -1.4940    1.0400    4.9640 C   0  0  0  0  0  0  0  0  0  0  0  0
   -1.3670   -1.0230   -0.0600 C   0  0  0  0  0  0  0  0  0  0  0  0
   -2.5600    0.7310    5.8110 C   0  0  0  0  0  0  0  0  0  0  0  0
   -3.5390   -0.1720    5.4000 C   0  0  0  0  0  0  0  0  0  0  0  0
    1.1380    4.5450   -5.7130 C   0  0  0  0  0  0  0  0  0  0  0  0
    6.1350    3.9500   -7.8050 C   0  0  0  0  0  0  0  0  0  0  0  0
    1.3900   -1.0030    0.3190 H   0  0  0  0  0  0  0  0  0  0  0  0
    1.5150    1.3130    1.0820 H   0  0  0  0  0  0  0  0  0  0  0  0
    0.2970    1.7990   -0.1220 H   0  0  0  0  0  0  0  0  0  0  0  0
    1.8630    2.7610   -4.1300 H   0  0  0  0  0  0  0  0  0  0  0  0
   -2.3140   -0.9300    2.3210 H   0  0  0  0  0  0  0  0  0  0  0  0
    5.6990    0.8370   -4.1040 H   0  0  0  0  0  0  0  0  0  0  0  0
    6.4000    2.2200   -6.0270 H   0  0  0  0  0  0  0  0  0  0  0  0
   -2.0100    1.0130    0.1500 H   0  0  0  0  0  0  0  0  0  0  0  0
   -2.4010   -0.0320    1.5370 H   0  0  0  0  0  0  0  0  0  0  0  0
    0.0170   -1.7030   -1.5530 H   0  0  0  0  0  0  0  0  0  0  0  0
   -0.5720   -0.0410   -1.7960 H   0  0  0  0  0  0  0  0  0  0  0  0
   -0.7320    1.7370    5.2810 H   0  0  0  0  0  0  0  0  0  0  0  0
   -2.2720   -1.2860   -0.6080 H   0  0  0  0  0  0  0  0  0  0  0  0
   -1.0850   -1.8490    0.5930 H   0  0  0  0  0  0  0  0  0  0  0  0
   -2.6260    1.1920    6.7850 H   0  0  0  0  0  0  0  0  0  0  0  0
   -4.3660   -0.4080    6.0540 H   0  0  0  0  0  0  0  0  0  0  0  0
    0.6230    5.3160   -6.2860 H   0  0  0  0  0  0  0  0  0  0  0  0
    1.2010    4.8500   -4.6680 H   0  0  0  0  0  0  0  0  0  0  0  0
    0.5850    3.6080   -5.7850 H   0  0  0  0  0  0  0  0  0  0  0  0
    6.2370    4.6470   -8.6370 H   0  0  0  0  0  0  0  0  0  0  0  0
    6.2730    2.9310   -8.1660 H   0  0  0  0  0  0  0  0  0  0  0  0
    6.8880    4.1730   -7.0500 H   0  0  0  0  0  0  0  0  0  0  0  0
  1  2  2  0  0  0  0
  1  3  1  0  0  0  0
  2  7  1  0  0  0  0
  2  8  1  0  0  0  0
  3  5  2  0  0  0  0
  3 11  1  0  0  0  0
  4  6  1  0  0  0  0
  4  9  1  0  0  0  0
  4 19  1  0  0  0  0
  5  7  1  0  0  0  0
  6 10  1  0  0  0  0
  6 14  2  0  0  0  0
  8  9  1  0  0  0  0
  8 23  1  0  0  0  0
  8 31  1  1  0  0  0
  9 32  1  0  0  0  0
  9 33  1  0  0  0  0
 10 16  2  0  0  0  0
 10 25  1  0  0  0  0
 11 12  1  0  0  0  0
 11 17  2  0  0  0  0
 12 13  2  0  0  0  0
 12 34  1  0  0  0  0
 13 15  1  0  0  0  0
 13 21  1  0  0  0  0
 15 18  2  0  0  0  0
 15 24  1  0  0  0  0
 16 20  1  0  0  0  0
 16 35  1  0  0  0  0
 17 18  1  0  0  0  0
 17 36  1  0  0  0  0
 18 37  1  0  0  0  0
 19 26  1  0  0  0  0
 19 38  1  0  0  0  0
 19 39  1  0  0  0  0
 20 22  1  0  0  0  0
 20 28  2  0  0  0  0
 21 29  1  0  0  0  0
 23 26  1  0  0  0  0
 23 40  1  0  0  0  0
 23 41  1  0  0  0  0
 24 30  1  0  0  0  0
 25 27  2  0  0  0  0
 25 42  1  0  0  0  0
 26 43  1  0  0  0  0
 26 44  1  0  0  0  0
 27 28  1  0  0  0  0
 27 45  1  0  0  0  0
 28 46  1  0  0  0  0
 29 47  1  0  0  0  0
 29 48  1  0  0  0  0
 29 49  1  0  0  0  0
 30 50  1  0  0  0  0
 30 51  1  0  0  0  0
 30 52  1  0  0  0  0
M  END
>  <$CLUSTER>
938

>  <INDEX>
615056

$$$$
