Asinex ASN 03271999
 OpenBabel04062209303D

 43 45  0  0  1  0  0  0  0  0999 V2000
    0.1230   -0.1120    0.0080 C   0  0  0  0  0  0  0  0  0  0  0  0
   -0.5280   -0.9310   -1.0500 C   0  0  1  0  0  0  0  0  0  0  0  0
    1.5160    0.5210    1.4830 N   0  0  0  0  0  0  0  0  0  0  0  0
    1.2760   -0.4810    0.6000 N   0  0  0  0  0  0  0  0  0  0  0  0
    0.5250    1.4420    1.4010 N   0  0  0  0  0  0  0  0  0  0  0  0
   -1.9110   -1.4170   -0.6130 C   0  0  0  0  0  0  0  0  0  0  0  0
   -6.6870   -3.3300    1.2020 C   0  0  0  0  0  0  0  0  0  0  0  0
   -0.3760    1.0550    0.4630 N   0  5  0  0  0  0  0  0  0  0  0  0
   -1.8690   -2.3730    0.3740 N   0  0  0  0  0  0  0  0  0  0  0  0
   -5.2270   -3.5530    1.4700 C   0  0  0  0  0  0  0  0  0  0  0  0
   -0.6100   -0.1730   -2.3760 C   0  0  0  0  0  0  0  0  0  0  0  0
   -2.9590   -0.9720   -1.0760 O   0  0  0  0  0  0  0  0  0  0  0  0
   -2.8920   -3.0600    1.0370 C   0  0  0  0  0  0  0  0  0  0  0  0
   -4.2460   -2.8380    0.7730 C   0  0  0  0  0  0  0  0  0  0  0  0
    0.7210    0.2040   -2.9890 C   0  0  0  0  0  0  0  0  0  0  0  0
   -7.3300   -2.9300    2.3330 F   0  0  0  0  0  0  0  0  0  0  0  0
   -7.2860   -4.4840    0.7990 F   0  0  0  0  0  0  0  0  0  0  0  0
   -6.9660   -2.3980    0.2480 F   0  0  0  0  0  0  0  0  0  0  0  0
    1.3820   -0.6970   -3.8220 C   0  0  0  0  0  0  0  0  0  0  0  0
    2.6360   -0.3730   -4.3420 C   0  0  0  0  0  0  0  0  0  0  0  0
    3.1740   -1.3310   -5.1770 O   0  0  0  0  0  0  0  0  0  0  0  0
   -4.8650   -4.4930    2.4320 C   0  0  0  0  0  0  0  0  0  0  0  0
   -3.5190   -4.7200    2.7020 C   0  0  0  0  0  0  0  0  0  0  0  0
    2.5930    1.7200   -3.1440 C   0  0  0  0  0  0  0  0  0  0  0  0
   -2.5380   -4.0090    2.0090 C   0  0  0  0  0  0  0  0  0  0  0  0
    1.3390    1.3980   -2.6230 C   0  0  0  0  0  0  0  0  0  0  0  0
    3.2390    0.8360   -4.0030 C   0  0  0  0  0  0  0  0  0  0  0  0
    4.4580   -1.0570   -5.7260 C   0  0  0  0  0  0  0  0  0  0  0  0
    0.0990   -1.8090   -1.2060 H   0  0  0  0  0  0  0  0  0  0  0  0
   -0.9370   -2.6230    0.6730 H   0  0  0  0  0  0  0  0  0  0  0  0
   -1.1740    0.7440   -2.2050 H   0  0  0  0  0  0  0  0  0  0  0  0
   -1.1440   -0.8000   -3.0900 H   0  0  0  0  0  0  0  0  0  0  0  0
   -4.5370   -2.1120    0.0280 H   0  0  0  0  0  0  0  0  0  0  0  0
    0.9240   -1.6450   -4.0650 H   0  0  0  0  0  0  0  0  0  0  0  0
   -5.6260   -5.0430    2.9660 H   0  0  0  0  0  0  0  0  0  0  0  0
   -3.2330   -5.4470    3.4480 H   0  0  0  0  0  0  0  0  0  0  0  0
    3.0630    2.6560   -2.8800 H   0  0  0  0  0  0  0  0  0  0  0  0
   -1.4950   -4.1910    2.2230 H   0  0  0  0  0  0  0  0  0  0  0  0
    0.8480    2.0730   -1.9370 H   0  0  0  0  0  0  0  0  0  0  0  0
    4.2080    1.0880   -4.4070 H   0  0  0  0  0  0  0  0  0  0  0  0
    4.7660   -1.8870   -6.3620 H   0  0  0  0  0  0  0  0  0  0  0  0
    5.1790   -0.9320   -4.9180 H   0  0  0  0  0  0  0  0  0  0  0  0
    4.4130   -0.1430   -6.3180 H   0  0  0  0  0  0  0  0  0  0  0  0
  1  2  1  0  0  0  0
  1  4  2  0  0  0  0
  1  8  1  0  0  0  0
  2  6  1  0  0  0  0
  2 11  1  0  0  0  0
  2 29  1  6  0  0  0
  3  4  1  0  0  0  0
  3  5  2  0  0  0  0
  5  8  1  0  0  0  0
  6  9  1  0  0  0  0
  6 12  2  0  0  0  0
  7 10  1  0  0  0  0
  7 16  1  0  0  0  0
  7 17  1  0  0  0  0
  7 18  1  0  0  0  0
  9 13  1  0  0  0  0
  9 30  1  0  0  0  0
 10 14  2  0  0  0  0
 10 22  1  0  0  0  0
 11 15  1  0  0  0  0
 11 31  1  0  0  0  0
 11 32  1  0  0  0  0
 13 14  1  0  0  0  0
 13 25  2  0  0  0  0
 14 33  1  0  0  0  0
 15 19  2  0  0  0  0
 15 26  1  0  0  0  0
 19 20  1  0  0  0  0
 19 34  1  0  0  0  0
 20 21  1  0  0  0  0
 20 27  2  0  0  0  0
 21 28  1  0  0  0  0
 22 23  2  0  0  0  0
 22 35  1  0  0  0  0
 23 25  1  0  0  0  0
 23 36  1  0  0  0  0
 24 26  2  0  0  0  0
 24 27  1  0  0  0  0
 24 37  1  0  0  0  0
 25 38  1  0  0  0  0
 26 39  1  0  0  0  0
 27 40  1  0  0  0  0
 28 41  1  0  0  0  0
 28 42  1  0  0  0  0
 28 43  1  0  0  0  0
M  CHG  1   8  -1
M  END
>  <$CLUSTER>
877

>  <INDEX>
130463

$$$$
