InterBioScreen STOCK4S-65808
 OpenBabel04062209303D

 40 41  0  0  0  0  0  0  0  0999 V2000
   -0.2240   -0.4330   -0.3160 C   0  0  0  0  0  0  0  0  0  0  0  0
    1.4240   -0.4240   -0.7690 S   0  0  0  0  0  0  0  0  0  0  0  0
   -0.8240   -1.5920   -0.4960 N   0  0  0  0  0  0  0  0  0  0  0  0
    0.0280   -2.5490   -1.0170 N   0  0  0  0  0  0  0  0  0  0  0  0
   -0.8630    0.6830    0.1920 N   0  0  0  0  0  0  0  0  0  0  0  0
    1.2360   -2.0680   -1.2070 C   0  0  0  0  0  0  0  0  0  0  0  0
   -0.3020    1.9340    0.4100 C   0  0  0  0  0  0  0  0  0  0  0  0
   -1.8170    5.2200    1.8100 C   0  0  0  0  0  0  0  0  0  0  0  0
   -1.3220    6.4820    2.0530 N   0  0  0  0  0  0  0  0  0  0  0  0
   -1.9480    7.6340    2.5710 C   0  0  0  0  0  0  0  0  0  0  0  0
   -3.2950    7.6620    2.9490 C   0  0  0  0  0  0  0  0  0  0  0  0
    0.8500    2.3010    0.2020 O   0  0  0  0  0  0  0  0  0  0  0  0
   -2.9830    4.8980    2.0340 O   0  0  0  0  0  0  0  0  0  0  0  0
   -1.3220    2.8910    0.9770 C   0  0  0  0  0  0  0  0  0  0  0  0
   -3.8600    8.8360    3.4570 C   0  0  0  0  0  0  0  0  0  0  0  0
   -0.7800    4.2880    1.2460 C   0  0  0  0  0  0  0  0  0  0  0  0
   -5.6470    8.8340    3.9490 Br  0  0  0  0  0  0  0  0  0  0  0  0
    2.3810   -2.8600   -1.7620 C   0  0  0  0  0  0  0  0  0  0  0  0
   -1.7500    9.9720    3.2190 C   0  0  0  0  0  0  0  0  0  0  0  0
   -1.1820    8.8010    2.7110 C   0  0  0  0  0  0  0  0  0  0  0  0
   -3.0900    9.9890    3.5920 C   0  0  0  0  0  0  0  0  0  0  0  0
    2.3820   -2.8520   -3.2820 C   0  0  0  0  0  0  0  0  0  0  0  0
    3.5460   -3.6570   -3.8570 C   0  0  0  0  0  0  0  0  0  0  0  0
   -1.8390    0.5770    0.4290 H   0  0  0  0  0  0  0  0  0  0  0  0
   -0.3460    6.6020    1.8210 H   0  0  0  0  0  0  0  0  0  0  0  0
   -3.9010    6.7730    2.8480 H   0  0  0  0  0  0  0  0  0  0  0  0
   -1.6920    2.4800    1.9170 H   0  0  0  0  0  0  0  0  0  0  0  0
   -2.1450    2.9740    0.2680 H   0  0  0  0  0  0  0  0  0  0  0  0
    0.0420    4.2110    1.9580 H   0  0  0  0  0  0  0  0  0  0  0  0
   -0.4110    4.7040    0.3090 H   0  0  0  0  0  0  0  0  0  0  0  0
    2.3010   -3.8900   -1.4140 H   0  0  0  0  0  0  0  0  0  0  0  0
    3.3160   -2.4280   -1.4050 H   0  0  0  0  0  0  0  0  0  0  0  0
   -1.1490   10.8630    3.3220 H   0  0  0  0  0  0  0  0  0  0  0  0
   -0.1410    8.7940    2.4230 H   0  0  0  0  0  0  0  0  0  0  0  0
   -3.5320   10.8930    3.9850 H   0  0  0  0  0  0  0  0  0  0  0  0
    2.4610   -1.8220   -3.6290 H   0  0  0  0  0  0  0  0  0  0  0  0
    1.4460   -3.2840   -3.6370 H   0  0  0  0  0  0  0  0  0  0  0  0
    4.4880   -3.2340   -3.5080 H   0  0  0  0  0  0  0  0  0  0  0  0
    3.5120   -3.6190   -4.9460 H   0  0  0  0  0  0  0  0  0  0  0  0
    3.4690   -4.6930   -3.5270 H   0  0  0  0  0  0  0  0  0  0  0  0
  1  2  1  0  0  0  0
  1  3  2  0  0  0  0
  1  5  1  0  0  0  0
  2  6  1  0  0  0  0
  3  4  1  0  0  0  0
  4  6  2  0  0  0  0
  5  7  1  0  0  0  0
  5 24  1  0  0  0  0
  6 18  1  0  0  0  0
  7 12  2  0  0  0  0
  7 14  1  0  0  0  0
  8  9  1  0  0  0  0
  8 13  2  0  0  0  0
  8 16  1  0  0  0  0
  9 10  1  0  0  0  0
  9 25  1  0  0  0  0
 10 11  2  0  0  0  0
 10 20  1  0  0  0  0
 11 15  1  0  0  0  0
 11 26  1  0  0  0  0
 14 16  1  0  0  0  0
 14 27  1  0  0  0  0
 14 28  1  0  0  0  0
 15 17  1  0  0  0  0
 15 21  2  0  0  0  0
 16 29  1  0  0  0  0
 16 30  1  0  0  0  0
 18 22  1  0  0  0  0
 18 31  1  0  0  0  0
 18 32  1  0  0  0  0
 19 20  2  0  0  0  0
 19 21  1  0  0  0  0
 19 33  1  0  0  0  0
 20 34  1  0  0  0  0
 21 35  1  0  0  0  0
 22 23  1  0  0  0  0
 22 36  1  0  0  0  0
 22 37  1  0  0  0  0
 23 38  1  0  0  0  0
 23 39  1  0  0  0  0
 23 40  1  0  0  0  0
M  END
>  <$CLUSTER>
554

>  <INDEX>
358888

$$$$
