Life Chemicals F0579-0521
 OpenBabel04062209303D

 47 50  0  0  0  0  0  0  0  0999 V2000
    0.5020    0.2990   -1.9970 N   0  0  0  0  0  0  0  0  0  0  0  0
   -0.7560    0.8240   -1.8970 C   0  0  0  0  0  0  0  0  0  0  0  0
    1.1650   -0.2500   -0.9310 C   0  0  0  0  0  0  0  0  0  0  0  0
    0.3860   -0.2130    0.3120 C   0  0  0  0  0  0  0  0  0  0  0  0
   -1.4500    0.8620   -0.8020 N   0  0  0  0  0  0  0  0  0  0  0  0
   -0.8340    0.3250    0.3020 C   0  0  0  0  0  0  0  0  0  0  0  0
   -1.5240    1.7270   -3.2320 S   0  0  0  0  0  0  0  0  0  0  0  0
    0.9380   -0.8130    1.8230 S   0  0  0  0  0  0  0  0  0  0  0  0
    1.1450    0.1800   -3.3380 C   0  0  0  0  0  0  0  0  0  0  0  0
    2.2960   -0.7240   -1.0080 O   0  0  0  0  0  0  0  0  0  0  0  0
   -3.8390    1.9540   -1.7110 C   0  0  0  0  0  0  0  0  0  0  0  0
   -3.8030    1.1800   -0.6020 N   0  0  0  0  0  0  0  0  0  0  0  0
   -1.5140    0.3170    1.6390 C   0  0  0  0  0  0  0  0  0  0  0  0
   -4.2230    3.1190   -1.6980 O   0  0  0  0  0  0  0  0  0  0  0  0
   -3.2570    1.2950   -2.9560 C   0  0  0  0  0  0  0  0  0  0  0  0
    0.5030   -0.4200   -4.4330 C   0  0  0  0  0  0  0  0  0  0  0  0
    2.4660    0.6300   -3.4940 C   0  0  0  0  0  0  0  0  0  0  0  0
   -4.2210    1.4040    0.7180 C   0  0  0  0  0  0  0  0  0  0  0  0
   -0.7320   -0.6270    2.5590 C   0  0  0  0  0  0  0  0  0  0  0  0
    2.4600   -0.0660   -5.8080 C   0  0  0  0  0  0  0  0  0  0  0  0
    1.1560   -0.5370   -5.6620 C   0  0  0  0  0  0  0  0  0  0  0  0
    3.1150    0.5130   -4.7250 C   0  0  0  0  0  0  0  0  0  0  0  0
   -5.0210    1.7760    3.3870 C   0  0  0  0  0  0  0  0  0  0  0  0
    3.0060   -0.2080   -7.0170 F   0  0  0  0  0  0  0  0  0  0  0  0
   -4.7630    2.6250    1.1320 C   0  0  0  0  0  0  0  0  0  0  0  0
   -4.0850    0.3720    1.6600 C   0  0  0  0  0  0  0  0  0  0  0  0
   -4.4830    0.5570    2.9860 C   0  0  0  0  0  0  0  0  0  0  0  0
   -5.1600    2.8080    2.4610 C   0  0  0  0  0  0  0  0  0  0  0  0
   -5.4460    1.9760    4.8040 C   0  0  0  0  0  0  0  0  0  0  0  0
   -3.3980    0.2670   -0.7530 H   0  0  0  0  0  0  0  0  0  0  0  0
   -2.5390   -0.0360    1.5310 H   0  0  0  0  0  0  0  0  0  0  0  0
   -1.5190    1.3230    2.0580 H   0  0  0  0  0  0  0  0  0  0  0  0
   -3.3330    0.2130   -2.8450 H   0  0  0  0  0  0  0  0  0  0  0  0
   -3.8370    1.6130   -3.8220 H   0  0  0  0  0  0  0  0  0  0  0  0
   -0.5040   -0.7940   -4.3240 H   0  0  0  0  0  0  0  0  0  0  0  0
    2.9840    1.0700   -2.6550 H   0  0  0  0  0  0  0  0  0  0  0  0
   -0.6570   -0.2000    3.5590 H   0  0  0  0  0  0  0  0  0  0  0  0
   -1.2290   -1.5960    2.6140 H   0  0  0  0  0  0  0  0  0  0  0  0
    0.6500   -0.9930   -6.5000 H   0  0  0  0  0  0  0  0  0  0  0  0
    4.1270    0.8730   -4.8370 H   0  0  0  0  0  0  0  0  0  0  0  0
   -4.8760    3.4310    0.4220 H   0  0  0  0  0  0  0  0  0  0  0  0
   -3.6680   -0.5760    1.3560 H   0  0  0  0  0  0  0  0  0  0  0  0
   -4.3730   -0.2460    3.7000 H   0  0  0  0  0  0  0  0  0  0  0  0
   -5.5770    3.7550    2.7710 H   0  0  0  0  0  0  0  0  0  0  0  0
   -5.2600    1.0640    5.3710 H   0  0  0  0  0  0  0  0  0  0  0  0
   -6.5100    2.2130    4.8340 H   0  0  0  0  0  0  0  0  0  0  0  0
   -4.8780    2.7970    5.2410 H   0  0  0  0  0  0  0  0  0  0  0  0
  1  2  1  0  0  0  0
  1  3  1  0  0  0  0
  1  9  1  0  0  0  0
  2  5  2  0  0  0  0
  2  7  1  0  0  0  0
  3  4  1  0  0  0  0
  3 10  2  0  0  0  0
  4  6  2  0  0  0  0
  4  8  1  0  0  0  0
  5  6  1  0  0  0  0
  6 13  1  0  0  0  0
  7 15  1  0  0  0  0
  8 19  1  0  0  0  0
  9 16  2  0  0  0  0
  9 17  1  0  0  0  0
 11 12  1  0  0  0  0
 11 14  2  0  0  0  0
 11 15  1  0  0  0  0
 12 18  1  0  0  0  0
 12 30  1  0  0  0  0
 13 19  1  0  0  0  0
 13 31  1  0  0  0  0
 13 32  1  0  0  0  0
 15 33  1  0  0  0  0
 15 34  1  0  0  0  0
 16 21  1  0  0  0  0
 16 35  1  0  0  0  0
 17 22  2  0  0  0  0
 17 36  1  0  0  0  0
 18 25  1  0  0  0  0
 18 26  2  0  0  0  0
 19 37  1  0  0  0  0
 19 38  1  0  0  0  0
 20 21  2  0  0  0  0
 20 22  1  0  0  0  0
 20 24  1  0  0  0  0
 21 39  1  0  0  0  0
 22 40  1  0  0  0  0
 23 27  2  0  0  0  0
 23 28  1  0  0  0  0
 23 29  1  0  0  0  0
 25 28  2  0  0  0  0
 25 41  1  0  0  0  0
 26 27  1  0  0  0  0
 26 42  1  0  0  0  0
 27 43  1  0  0  0  0
 28 44  1  0  0  0  0
 29 45  1  0  0  0  0
 29 46  1  0  0  0  0
 29 47  1  0  0  0  0
M  END
>  <$CLUSTER>
217

>  <INDEX>
275208

$$$$
