Chem T&I UZI/1102918
 OpenBabel04062209303D

 44 46  0  0  0  0  0  0  0  0999 V2000
    1.5830    1.5040   -0.1400 S   0  0  0  0  0  0  0  0  0  0  0  0
   -3.7520   -2.9070   -0.8560 S   0  0  0  0  0  0  0  0  0  0  0  0
    0.2990    2.6940    0.1780 C   0  0  0  0  0  0  0  0  0  0  0  0
    1.0620    0.2120    0.8600 N   0  0  0  0  0  0  0  0  0  0  0  0
   -2.3400   -1.9790   -0.3670 C   0  0  0  0  0  0  0  0  0  0  0  0
    1.5160    1.1400   -1.5410 O   0  0  0  0  0  0  0  0  0  0  0  0
    2.8060    2.0420    0.4260 O   0  0  0  0  0  0  0  0  0  0  0  0
    0.4380    3.5990    1.2230 C   0  0  0  0  0  0  0  0  0  0  0  0
   -3.2880   -4.0450   -1.6240 O   0  0  0  0  0  0  0  0  0  0  0  0
   -4.5860   -3.0910    0.3150 O   0  0  0  0  0  0  0  0  0  0  0  0
   -4.5040   -1.7960   -1.9060 N   0  0  0  0  0  0  0  0  0  0  0  0
   -0.5670    4.5410    1.4450 C   0  0  0  0  0  0  0  0  0  0  0  0
   -0.8200    2.7120   -0.6550 C   0  0  0  0  0  0  0  0  0  0  0  0
   -0.0820   -0.5500    0.4390 C   0  0  0  0  0  0  0  0  0  0  0  0
   -1.6940    4.5700    0.6230 C   0  0  0  0  0  0  0  0  0  0  0  0
   -2.3980   -1.1660    0.7640 C   0  0  0  0  0  0  0  0  0  0  0  0
   -1.1540   -2.0800   -1.0940 C   0  0  0  0  0  0  0  0  0  0  0  0
   -1.8190    3.6570   -0.4250 C   0  0  0  0  0  0  0  0  0  0  0  0
   -1.2700   -0.4500    1.1690 C   0  0  0  0  0  0  0  0  0  0  0  0
   -0.0240   -1.3660   -0.6940 C   0  0  0  0  0  0  0  0  0  0  0  0
   -0.4560    5.4780    2.5070 C   0  0  0  0  0  0  0  0  0  0  0  0
   -5.0380   -0.5310   -1.3740 C   0  0  0  0  0  0  0  0  0  0  0  0
   -2.7090    5.5380    0.8630 C   0  0  0  0  0  0  0  0  0  0  0  0
   -6.0730    0.0210   -2.3380 C   0  0  0  0  0  0  0  0  0  0  0  0
   -1.4590    6.4220    2.7310 C   0  0  0  0  0  0  0  0  0  0  0  0
   -2.5830    6.4520    1.9110 C   0  0  0  0  0  0  0  0  0  0  0  0
    1.5450   -0.0070    1.7200 H   0  0  0  0  0  0  0  0  0  0  0  0
    1.3130    3.5740    1.8560 H   0  0  0  0  0  0  0  0  0  0  0  0
   -5.2770   -2.2800   -2.3390 H   0  0  0  0  0  0  0  0  0  0  0  0
   -0.9110    2.0040   -1.4660 H   0  0  0  0  0  0  0  0  0  0  0  0
   -3.3160   -1.0900    1.3270 H   0  0  0  0  0  0  0  0  0  0  0  0
   -1.1100   -2.7120   -1.9680 H   0  0  0  0  0  0  0  0  0  0  0  0
   -2.6920    3.6830   -1.0600 H   0  0  0  0  0  0  0  0  0  0  0  0
   -1.3150    0.1800    2.0450 H   0  0  0  0  0  0  0  0  0  0  0  0
    0.8930   -1.4440   -1.2590 H   0  0  0  0  0  0  0  0  0  0  0  0
    0.4130    5.4600    3.1470 H   0  0  0  0  0  0  0  0  0  0  0  0
   -4.2260    0.1880   -1.2600 H   0  0  0  0  0  0  0  0  0  0  0  0
   -5.5030   -0.7110   -0.4050 H   0  0  0  0  0  0  0  0  0  0  0  0
   -3.5830    5.5660    0.2300 H   0  0  0  0  0  0  0  0  0  0  0  0
   -5.6080    0.2010   -3.3070 H   0  0  0  0  0  0  0  0  0  0  0  0
   -6.4710    0.9570   -1.9470 H   0  0  0  0  0  0  0  0  0  0  0  0
   -6.8840   -0.6990   -2.4520 H   0  0  0  0  0  0  0  0  0  0  0  0
   -1.3630    7.1300    3.5410 H   0  0  0  0  0  0  0  0  0  0  0  0
   -3.3590    7.1830    2.0850 H   0  0  0  0  0  0  0  0  0  0  0  0
  1  3  1  0  0  0  0
  1  4  1  0  0  0  0
  1  6  2  0  0  0  0
  1  7  2  0  0  0  0
  2  5  1  0  0  0  0
  2  9  2  0  0  0  0
  2 10  2  0  0  0  0
  2 11  1  0  0  0  0
  3  8  2  0  0  0  0
  3 13  1  0  0  0  0
  4 14  1  0  0  0  0
  4 27  1  0  0  0  0
  5 16  2  0  0  0  0
  5 17  1  0  0  0  0
  8 12  1  0  0  0  0
  8 28  1  0  0  0  0
 11 22  1  0  0  0  0
 11 29  1  0  0  0  0
 12 15  2  0  0  0  0
 12 21  1  0  0  0  0
 13 18  2  0  0  0  0
 13 30  1  0  0  0  0
 14 19  2  0  0  0  0
 14 20  1  0  0  0  0
 15 18  1  0  0  0  0
 15 23  1  0  0  0  0
 16 19  1  0  0  0  0
 16 31  1  0  0  0  0
 17 20  2  0  0  0  0
 17 32  1  0  0  0  0
 18 33  1  0  0  0  0
 19 34  1  0  0  0  0
 20 35  1  0  0  0  0
 21 25  2  0  0  0  0
 21 36  1  0  0  0  0
 22 24  1  0  0  0  0
 22 37  1  0  0  0  0
 22 38  1  0  0  0  0
 23 26  2  0  0  0  0
 23 39  1  0  0  0  0
 24 40  1  0  0  0  0
 24 41  1  0  0  0  0
 24 42  1  0  0  0  0
 25 26  1  0  0  0  0
 25 43  1  0  0  0  0
 26 44  1  0  0  0  0
M  END
>  <$CLUSTER>
473

>  <INDEX>
647335

$$$$
