Asinex ASN 06916822
 OpenBabel04062209303D

 55 58  0  0  0  0  0  0  0  0999 V2000
    0.1180   -0.1790    0.3680 C   0  0  0  0  0  0  0  0  0  0  0  0
   -1.0080    0.5880    0.3250 N   0  0  0  0  0  0  0  0  0  0  0  0
    0.0820   -0.8810   -0.8240 C   0  0  0  0  0  0  0  0  0  0  0  0
    1.0570   -0.2510    1.3240 N   0  0  0  0  0  0  0  0  0  0  0  0
   -1.6990    0.3780   -0.8150 N   0  0  0  0  0  0  0  0  0  0  0  0
   -1.0340   -0.5270   -1.5290 N   0  0  0  0  0  0  0  0  0  0  0  0
    2.1110   -1.8900   -0.1470 N   0  0  0  0  0  0  0  0  0  0  0  0
    2.0170   -1.1370    0.9760 C   0  0  0  0  0  0  0  0  0  0  0  0
    1.1260   -1.7640   -1.0700 C   0  0  0  0  0  0  0  0  0  0  0  0
    5.6660   -2.5300    2.8760 N   0  0  0  0  0  0  0  0  0  0  0  0
    6.7640   -3.3160    2.6920 C   0  0  0  0  0  0  0  0  0  0  0  0
   -1.4880    1.5280    1.3110 C   0  0  0  0  0  0  0  0  0  0  0  0
    3.1630   -1.3030    2.0180 C   0  0  0  0  0  0  0  0  0  0  0  0
    5.6390   -1.1340    2.4280 C   0  0  0  0  0  0  0  0  0  0  0  0
    4.3990   -2.9060    3.5100 C   0  0  0  0  0  0  0  0  0  0  0  0
    7.8040   -2.9360    2.1480 O   0  0  0  0  0  0  0  0  0  0  0  0
    3.2190   -2.7300    2.5660 C   0  0  0  0  0  0  0  0  0  0  0  0
    4.5120   -0.8810    1.4360 C   0  0  0  0  0  0  0  0  0  0  0  0
    1.1870   -2.4930   -2.1950 O   0  0  0  0  0  0  0  0  0  0  0  0
   -1.0100    2.9430    1.0360 C   0  0  0  0  0  0  0  0  0  0  0  0
   -0.1130    5.5530    0.5180 C   0  0  0  0  0  0  0  0  0  0  0  0
   -1.8460    3.8680    0.3930 C   0  0  0  0  0  0  0  0  0  0  0  0
    0.2870    3.3360    1.4000 C   0  0  0  0  0  0  0  0  0  0  0  0
   -1.4000    5.1680    0.1390 C   0  0  0  0  0  0  0  0  0  0  0  0
    0.7310    4.6370    1.1460 C   0  0  0  0  0  0  0  0  0  0  0  0
    6.6710   -4.7340    3.1960 C   0  0  0  0  0  0  0  0  0  0  0  0
    0.3620    6.9430    0.2530 C   0  0  0  0  0  0  0  0  0  0  0  0
    7.8730   -5.5810    2.9880 C   0  0  0  0  0  0  0  0  0  0  0  0
    7.7380   -6.9860    3.5050 C   0  0  0  0  0  0  0  0  0  0  0  0
   -1.1280    1.2210    2.2930 H   0  0  0  0  0  0  0  0  0  0  0  0
   -2.5780    1.5180    1.3040 H   0  0  0  0  0  0  0  0  0  0  0  0
    2.9410   -0.6380    2.8530 H   0  0  0  0  0  0  0  0  0  0  0  0
    6.5900   -0.8980    1.9500 H   0  0  0  0  0  0  0  0  0  0  0  0
    5.4980   -0.4880    3.2940 H   0  0  0  0  0  0  0  0  0  0  0  0
    4.2450   -2.2790    4.3880 H   0  0  0  0  0  0  0  0  0  0  0  0
    4.4540   -3.9510    3.8150 H   0  0  0  0  0  0  0  0  0  0  0  0
    3.3210   -3.4270    1.7340 H   0  0  0  0  0  0  0  0  0  0  0  0
    2.2960   -2.9410    3.1060 H   0  0  0  0  0  0  0  0  0  0  0  0
    4.4800    0.1820    1.1970 H   0  0  0  0  0  0  0  0  0  0  0  0
    4.7020   -1.4520    0.5270 H   0  0  0  0  0  0  0  0  0  0  0  0
    1.9510   -3.0700   -2.2640 H   0  0  0  0  0  0  0  0  0  0  0  0
   -2.8410    3.5740    0.0920 H   0  0  0  0  0  0  0  0  0  0  0  0
    0.9470    2.6280    1.8800 H   0  0  0  0  0  0  0  0  0  0  0  0
   -2.0520    5.8760   -0.3510 H   0  0  0  0  0  0  0  0  0  0  0  0
    1.7280    4.9330    1.4360 H   0  0  0  0  0  0  0  0  0  0  0  0
    5.8340   -5.2140    2.6890 H   0  0  0  0  0  0  0  0  0  0  0  0
    6.4730   -4.6950    4.2670 H   0  0  0  0  0  0  0  0  0  0  0  0
   -0.4280    7.5090   -0.2400 H   0  0  0  0  0  0  0  0  0  0  0  0
    1.2410    6.9100   -0.3900 H   0  0  0  0  0  0  0  0  0  0  0  0
    0.6200    7.4250    1.1960 H   0  0  0  0  0  0  0  0  0  0  0  0
    8.7140   -5.1100    3.4960 H   0  0  0  0  0  0  0  0  0  0  0  0
    8.0750   -5.6290    1.9180 H   0  0  0  0  0  0  0  0  0  0  0  0
    7.5350   -6.9610    4.5760 H   0  0  0  0  0  0  0  0  0  0  0  0
    8.6650   -7.5310    3.3240 H   0  0  0  0  0  0  0  0  0  0  0  0
    6.9170   -7.4850    2.9910 H   0  0  0  0  0  0  0  0  0  0  0  0
  1  2  1  0  0  0  0
  1  3  1  0  0  0  0
  1  4  2  0  0  0  0
  2  5  1  0  0  0  0
  2 12  1  0  0  0  0
  3  6  1  0  0  0  0
  3  9  2  0  0  0  0
  4  8  1  0  0  0  0
  5  6  2  0  0  0  0
  7  8  2  0  0  0  0
  7  9  1  0  0  0  0
  8 13  1  0  0  0  0
  9 19  1  0  0  0  0
 10 11  1  0  0  0  0
 10 14  1  0  0  0  0
 10 15  1  0  0  0  0
 11 16  2  0  0  0  0
 11 26  1  0  0  0  0
 12 20  1  0  0  0  0
 12 30  1  0  0  0  0
 12 31  1  0  0  0  0
 13 17  1  0  0  0  0
 13 18  1  0  0  0  0
 13 32  1  0  0  0  0
 14 18  1  0  0  0  0
 14 33  1  0  0  0  0
 14 34  1  0  0  0  0
 15 17  1  0  0  0  0
 15 35  1  0  0  0  0
 15 36  1  0  0  0  0
 17 37  1  0  0  0  0
 17 38  1  0  0  0  0
 18 39  1  0  0  0  0
 18 40  1  0  0  0  0
 19 41  1  0  0  0  0
 20 22  2  0  0  0  0
 20 23  1  0  0  0  0
 21 24  2  0  0  0  0
 21 25  1  0  0  0  0
 21 27  1  0  0  0  0
 22 24  1  0  0  0  0
 22 42  1  0  0  0  0
 23 25  2  0  0  0  0
 23 43  1  0  0  0  0
 24 44  1  0  0  0  0
 25 45  1  0  0  0  0
 26 28  1  0  0  0  0
 26 46  1  0  0  0  0
 26 47  1  0  0  0  0
 27 48  1  0  0  0  0
 27 49  1  0  0  0  0
 27 50  1  0  0  0  0
 28 29  1  0  0  0  0
 28 51  1  0  0  0  0
 28 52  1  0  0  0  0
 29 53  1  0  0  0  0
 29 54  1  0  0  0  0
 29 55  1  0  0  0  0
M  END
>  <$CLUSTER>
937

>  <INDEX>
164267

$$$$
