Asinex ASN 04361294
 OpenBabel04062209303D

 45 47  0  0  0  0  0  0  0  0999 V2000
    0.5140    3.6210   -5.3200 S   0  0  0  0  0  0  0  0  0  0  0  0
    0.7130    0.6750    0.2720 S   0  0  0  0  0  0  0  0  0  0  0  0
    1.9810    4.4230   -5.3940 N   0  0  0  0  0  0  0  0  0  0  0  0
   -0.7380   -0.1800    0.3130 N   0  0  0  0  0  0  0  0  0  0  0  0
    0.5770    2.8030   -3.7540 C   0  0  0  0  0  0  0  0  0  0  0  0
    0.6240    1.5020   -1.3140 C   0  0  0  0  0  0  0  0  0  0  0  0
    0.5130    2.6120   -6.3660 O   0  0  0  0  0  0  0  0  0  0  0  0
   -0.5340    4.6260   -5.2800 O   0  0  0  0  0  0  0  0  0  0  0  0
   -2.1100   -2.1180   -0.1940 C   0  0  0  0  0  0  0  0  0  0  0  0
   -3.6940   -1.7750   -0.7470 S   0  0  0  0  0  0  0  0  0  0  0  0
    0.6480    1.6750    1.3260 O   0  0  0  0  0  0  0  0  0  0  0  0
    1.8020   -0.2870    0.2480 O   0  0  0  0  0  0  0  0  0  0  0  0
   -0.9400   -1.2660   -0.6510 C   0  0  0  0  0  0  0  0  0  0  0  0
   -4.3470   -3.0960    0.1210 C   0  0  0  0  0  0  0  0  0  0  0  0
   -2.0830   -3.2270    0.6220 C   0  0  0  0  0  0  0  0  0  0  0  0
   -3.3780   -3.7890    0.8100 C   0  0  0  0  0  0  0  0  0  0  0  0
    1.1200    1.5210   -3.6620 C   0  0  0  0  0  0  0  0  0  0  0  0
    0.0650    3.4330   -2.6180 C   0  0  0  0  0  0  0  0  0  0  0  0
    0.0950    2.7810   -1.3850 C   0  0  0  0  0  0  0  0  0  0  0  0
    1.1520    0.8630   -2.4310 C   0  0  0  0  0  0  0  0  0  0  0  0
    2.1930    5.5700   -4.4710 C   0  0  0  0  0  0  0  0  0  0  0  0
    3.2160    3.6050   -5.5340 C   0  0  0  0  0  0  0  0  0  0  0  0
    4.4240    4.4360   -5.9540 C   0  0  0  0  0  0  0  0  0  0  0  0
    3.3860    6.4330   -4.8740 C   0  0  0  0  0  0  0  0  0  0  0  0
    4.6590    5.6110   -5.0170 C   0  0  0  0  0  0  0  0  0  0  0  0
   -1.4820    0.4880    0.1690 H   0  0  0  0  0  0  0  0  0  0  0  0
   -0.0400   -1.8790   -0.7050 H   0  0  0  0  0  0  0  0  0  0  0  0
   -1.1540   -0.8470   -1.6340 H   0  0  0  0  0  0  0  0  0  0  0  0
   -5.3950   -3.3560    0.1280 H   0  0  0  0  0  0  0  0  0  0  0  0
   -1.1830   -3.6250    1.0680 H   0  0  0  0  0  0  0  0  0  0  0  0
   -3.5760   -4.6570    1.4210 H   0  0  0  0  0  0  0  0  0  0  0  0
    1.5160    1.0380   -4.5430 H   0  0  0  0  0  0  0  0  0  0  0  0
   -0.3540    4.4250   -2.6940 H   0  0  0  0  0  0  0  0  0  0  0  0
   -0.2880    3.2660   -0.4990 H   0  0  0  0  0  0  0  0  0  0  0  0
    1.5790   -0.1250   -2.3470 H   0  0  0  0  0  0  0  0  0  0  0  0
    2.3650    5.1830   -3.4670 H   0  0  0  0  0  0  0  0  0  0  0  0
    1.2970    6.1900   -4.4730 H   0  0  0  0  0  0  0  0  0  0  0  0
    3.0420    2.8360   -6.2870 H   0  0  0  0  0  0  0  0  0  0  0  0
    3.4330    3.1330   -4.5760 H   0  0  0  0  0  0  0  0  0  0  0  0
    4.2560    4.8170   -6.9610 H   0  0  0  0  0  0  0  0  0  0  0  0
    5.3090    3.7990   -5.9490 H   0  0  0  0  0  0  0  0  0  0  0  0
    3.5430    7.1960   -4.1110 H   0  0  0  0  0  0  0  0  0  0  0  0
    3.1670    6.9130   -5.8280 H   0  0  0  0  0  0  0  0  0  0  0  0
    5.4510    6.2410   -5.4220 H   0  0  0  0  0  0  0  0  0  0  0  0
    4.9570    5.2360   -4.0380 H   0  0  0  0  0  0  0  0  0  0  0  0
  1  3  1  0  0  0  0
  1  5  1  0  0  0  0
  1  7  2  0  0  0  0
  1  8  2  0  0  0  0
  2  4  1  0  0  0  0
  2  6  1  0  0  0  0
  2 11  2  0  0  0  0
  2 12  2  0  0  0  0
  3 21  1  0  0  0  0
  3 22  1  0  0  0  0
  4 13  1  0  0  0  0
  4 26  1  0  0  0  0
  5 17  1  0  0  0  0
  5 18  2  0  0  0  0
  6 19  2  0  0  0  0
  6 20  1  0  0  0  0
  9 10  1  0  0  0  0
  9 13  1  0  0  0  0
  9 15  2  0  0  0  0
 10 14  1  0  0  0  0
 13 27  1  0  0  0  0
 13 28  1  0  0  0  0
 14 16  2  0  0  0  0
 14 29  1  0  0  0  0
 15 16  1  0  0  0  0
 15 30  1  0  0  0  0
 16 31  1  0  0  0  0
 17 20  2  0  0  0  0
 17 32  1  0  0  0  0
 18 19  1  0  0  0  0
 18 33  1  0  0  0  0
 19 34  1  0  0  0  0
 20 35  1  0  0  0  0
 21 24  1  0  0  0  0
 21 36  1  0  0  0  0
 21 37  1  0  0  0  0
 22 23  1  0  0  0  0
 22 38  1  0  0  0  0
 22 39  1  0  0  0  0
 23 25  1  0  0  0  0
 23 40  1  0  0  0  0
 23 41  1  0  0  0  0
 24 25  1  0  0  0  0
 24 42  1  0  0  0  0
 24 43  1  0  0  0  0
 25 44  1  0  0  0  0
 25 45  1  0  0  0  0
M  END
>  <$CLUSTER>
283

>  <INDEX>
137208

$$$$
