Specs AM-900/15051004
 OpenBabel04062209303D

 58 61  0  0  0  0  0  0  0  0999 V2000
    1.6510    0.5890    2.0410 C   0  0  0  0  0  0  0  0  0  0  0  0
    1.1540    0.5370    3.3030 N   0  0  0  0  0  0  0  0  0  0  0  0
    2.9860    0.6260    1.7960 N   0  0  0  0  0  0  0  0  0  0  0  0
    2.0350    0.5220    4.3270 C   0  0  0  0  0  0  0  0  0  0  0  0
    0.8100    0.6040    1.0200 N   0  0  0  0  0  0  0  0  0  0  0  0
    3.3970    0.5570    4.1620 C   0  0  0  0  0  0  0  0  0  0  0  0
    3.8220    0.6090    2.8570 C   0  0  0  0  0  0  0  0  0  0  0  0
    1.4780    0.4670    5.6620 N   0  0  0  0  0  0  0  0  0  0  0  0
    6.1500    0.6380    3.5280 N   0  0  0  0  0  0  0  0  0  0  0  0
    5.2260    0.6500    2.5480 N   0  0  0  0  0  0  0  0  0  0  0  0
    7.3650    0.6790    3.0940 C   0  0  0  0  0  0  0  0  0  0  0  0
    9.7990    0.7190    3.4970 C   0  0  0  0  0  0  0  0  0  0  0  0
    8.5150    0.6730    4.0520 C   0  0  0  0  0  0  0  0  0  0  0  0
   10.9060    0.7160    4.3470 C   0  0  0  0  0  0  0  0  0  0  0  0
    1.2200    0.6590   -0.3840 C   0  0  0  0  0  0  0  0  0  0  0  0
   -0.6470    0.5690    1.1520 C   0  0  0  0  0  0  0  0  0  0  0  0
    0.0320    0.4300    5.8200 C   0  0  0  0  0  0  0  0  0  0  0  0
    2.3250    0.4470    6.8430 C   0  0  0  0  0  0  0  0  0  0  0  0
    9.4390    0.6220    6.2650 C   0  0  0  0  0  0  0  0  0  0  0  0
    8.3270    0.6250    5.4210 C   0  0  0  0  0  0  0  0  0  0  0  0
   10.7260    0.6670    5.7290 C   0  0  0  0  0  0  0  0  0  0  0  0
   12.2870    0.7640    3.7810 C   0  0  0  0  0  0  0  0  0  0  0  0
   -0.3300   -0.8180    6.6560 C   0  0  0  0  0  0  0  0  0  0  0  0
    1.9600   -0.8010    7.6780 C   0  0  0  0  0  0  0  0  0  0  0  0
   -1.2460   -0.6330    0.4240 C   0  0  0  0  0  0  0  0  0  0  0  0
    0.6890   -0.5400   -1.1690 C   0  0  0  0  0  0  0  0  0  0  0  0
   -0.8260   -0.6570   -1.0430 C   0  0  0  0  0  0  0  0  0  0  0  0
    0.4650   -0.9240    7.9540 C   0  0  0  0  0  0  0  0  0  0  0  0
    4.0830    0.5450    4.9960 H   0  0  0  0  0  0  0  0  0  0  0  0
    5.5230    0.6880    1.5830 H   0  0  0  0  0  0  0  0  0  0  0  0
    7.5530    0.7180    2.0310 H   0  0  0  0  0  0  0  0  0  0  0  0
    9.9310    0.7560    2.4260 H   0  0  0  0  0  0  0  0  0  0  0  0
    2.3090    0.6620   -0.4350 H   0  0  0  0  0  0  0  0  0  0  0  0
    0.8330    1.5750   -0.8310 H   0  0  0  0  0  0  0  0  0  0  0  0
   -1.0630    1.4830    0.7280 H   0  0  0  0  0  0  0  0  0  0  0  0
   -0.9060    0.5080    2.2090 H   0  0  0  0  0  0  0  0  0  0  0  0
   -0.4450    0.3700    4.8420 H   0  0  0  0  0  0  0  0  0  0  0  0
   -0.3060    1.3300    6.3340 H   0  0  0  0  0  0  0  0  0  0  0  0
    2.1570    1.3480    7.4330 H   0  0  0  0  0  0  0  0  0  0  0  0
    3.3720    0.3980    6.5450 H   0  0  0  0  0  0  0  0  0  0  0  0
    9.3020    0.5850    7.3360 H   0  0  0  0  0  0  0  0  0  0  0  0
    7.3290    0.5900    5.8330 H   0  0  0  0  0  0  0  0  0  0  0  0
   11.5840    0.6640    6.3850 H   0  0  0  0  0  0  0  0  0  0  0  0
   12.2330    0.7980    2.6930 H   0  0  0  0  0  0  0  0  0  0  0  0
   12.8370   -0.1250    4.0890 H   0  0  0  0  0  0  0  0  0  0  0  0
   12.7990    1.6540    4.1480 H   0  0  0  0  0  0  0  0  0  0  0  0
   -0.1330   -1.7060    6.0560 H   0  0  0  0  0  0  0  0  0  0  0  0
   -1.3910   -0.7740    6.9020 H   0  0  0  0  0  0  0  0  0  0  0  0
    2.4850   -0.7450    8.6320 H   0  0  0  0  0  0  0  0  0  0  0  0
    2.2860   -1.6880    7.1350 H   0  0  0  0  0  0  0  0  0  0  0  0
   -2.3330   -0.5780    0.4810 H   0  0  0  0  0  0  0  0  0  0  0  0
   -0.9030   -1.5480    0.9070 H   0  0  0  0  0  0  0  0  0  0  0  0
    1.1490   -1.4490   -0.7820 H   0  0  0  0  0  0  0  0  0  0  0  0
    0.9500   -0.4200   -2.2210 H   0  0  0  0  0  0  0  0  0  0  0  0
   -1.2940    0.1780   -1.5640 H   0  0  0  0  0  0  0  0  0  0  0  0
   -1.1520   -1.5950   -1.4940 H   0  0  0  0  0  0  0  0  0  0  0  0
    0.2650   -1.8890    8.4190 H   0  0  0  0  0  0  0  0  0  0  0  0
    0.1580   -0.1250    8.6290 H   0  0  0  0  0  0  0  0  0  0  0  0
  1  2  2  0  0  0  0
  1  3  1  0  0  0  0
  1  5  1  0  0  0  0
  2  4  1  0  0  0  0
  3  7  2  0  0  0  0
  4  6  2  0  0  0  0
  4  8  1  0  0  0  0
  5 15  1  0  0  0  0
  5 16  1  0  0  0  0
  6  7  1  0  0  0  0
  6 29  1  0  0  0  0
  7 10  1  0  0  0  0
  8 17  1  0  0  0  0
  8 18  1  0  0  0  0
  9 10  1  0  0  0  0
  9 11  2  0  0  0  0
 10 30  1  0  0  0  0
 11 13  1  0  0  0  0
 11 31  1  0  0  0  0
 12 13  2  0  0  0  0
 12 14  1  0  0  0  0
 12 32  1  0  0  0  0
 13 20  1  0  0  0  0
 14 21  2  0  0  0  0
 14 22  1  0  0  0  0
 15 26  1  0  0  0  0
 15 33  1  0  0  0  0
 15 34  1  0  0  0  0
 16 25  1  0  0  0  0
 16 35  1  0  0  0  0
 16 36  1  0  0  0  0
 17 23  1  0  0  0  0
 17 37  1  0  0  0  0
 17 38  1  0  0  0  0
 18 24  1  0  0  0  0
 18 39  1  0  0  0  0
 18 40  1  0  0  0  0
 19 20  2  0  0  0  0
 19 21  1  0  0  0  0
 19 41  1  0  0  0  0
 20 42  1  0  0  0  0
 21 43  1  0  0  0  0
 22 44  1  0  0  0  0
 22 45  1  0  0  0  0
 22 46  1  0  0  0  0
 23 28  1  0  0  0  0
 23 47  1  0  0  0  0
 23 48  1  0  0  0  0
 24 28  1  0  0  0  0
 24 49  1  0  0  0  0
 24 50  1  0  0  0  0
 25 27  1  0  0  0  0
 25 51  1  0  0  0  0
 25 52  1  0  0  0  0
 26 27  1  0  0  0  0
 26 53  1  0  0  0  0
 26 54  1  0  0  0  0
 27 55  1  0  0  0  0
 27 56  1  0  0  0  0
 28 57  1  0  0  0  0
 28 58  1  0  0  0  0
M  END
>  <$CLUSTER>
508

>  <INDEX>
505362

$$$$
