Tripos 1557-10610
 OpenBabel04062209303D

 45 47  0  0  1  0  0  0  0  0999 V2000
   -1.4930    0.5590    1.7510 S   0  0  0  0  0  0  0  0  0  0  0  0
   -0.7260    0.4640    0.2240 N   0  0  0  0  0  0  0  0  0  0  0  0
   -0.1840   -0.8390   -0.2590 C   0  0  2  0  0  0  0  0  0  0  0  0
   -0.1070    0.6400    2.8620 C   0  0  0  0  0  0  0  0  0  0  0  0
    1.1800   -1.1800    0.2870 C   0  0  0  0  0  0  0  0  0  0  0  0
   -2.1940   -0.6810    2.0230 O   0  0  0  0  0  0  0  0  0  0  0  0
   -2.1910    1.8270    1.8530 O   0  0  0  0  0  0  0  0  0  0  0  0
    0.4490   -0.5480    3.3700 C   0  0  0  0  0  0  0  0  0  0  0  0
    1.5230   -0.4870    4.2600 C   0  0  0  0  0  0  0  0  0  0  0  0
    0.4180    1.8770    3.2520 C   0  0  0  0  0  0  0  0  0  0  0  0
    2.0050   -0.3990    0.7370 O   0  0  0  0  0  0  0  0  0  0  0  0
    2.0420    0.7500    4.6450 C   0  0  0  0  0  0  0  0  0  0  0  0
    1.4910    1.9310    4.1420 C   0  0  0  0  0  0  0  0  0  0  0  0
   -0.0500    1.6780   -0.3160 C   0  0  0  0  0  0  0  0  0  0  0  0
    1.4070   -2.5170    0.1970 O   0  0  0  0  0  0  0  0  0  0  0  0
   -0.1760   -0.8550   -1.7930 C   0  0  0  0  0  0  0  0  0  0  0  0
    2.0880   -1.6750    4.7760 C   0  0  0  0  0  0  0  0  0  0  0  0
    3.1320    0.7970    5.5490 C   0  0  0  0  0  0  0  0  0  0  0  0
    2.6550   -3.0140    0.6680 C   0  0  0  0  0  0  0  0  0  0  0  0
   -0.0770    1.6510   -1.8390 C   0  0  0  0  0  0  0  0  0  0  0  0
    0.5270    0.3640   -2.3870 C   0  0  0  0  0  0  0  0  0  0  0  0
    2.6960   -4.5170    0.4800 C   0  0  0  0  0  0  0  0  0  0  0  0
    3.1610   -1.6160    5.6650 C   0  0  0  0  0  0  0  0  0  0  0  0
    3.6810   -0.3830    6.0510 C   0  0  0  0  0  0  0  0  0  0  0  0
   -0.8480   -1.6140    0.1230 H   0  0  0  0  0  0  0  0  0  0  0  0
    0.0460   -1.5050    3.0720 H   0  0  0  0  0  0  0  0  0  0  0  0
   -0.0080    2.7910    2.8640 H   0  0  0  0  0  0  0  0  0  0  0  0
    1.8960    2.8860    4.4420 H   0  0  0  0  0  0  0  0  0  0  0  0
    0.9840    1.6990    0.0270 H   0  0  0  0  0  0  0  0  0  0  0  0
   -0.5680    2.5690    0.0390 H   0  0  0  0  0  0  0  0  0  0  0  0
   -1.2070   -0.8720   -2.1480 H   0  0  0  0  0  0  0  0  0  0  0  0
    0.3390   -1.7540   -2.1310 H   0  0  0  0  0  0  0  0  0  0  0  0
    1.6870   -2.6330    4.4810 H   0  0  0  0  0  0  0  0  0  0  0  0
    3.5400    1.7510    5.8510 H   0  0  0  0  0  0  0  0  0  0  0  0
    2.7660   -2.7760    1.7260 H   0  0  0  0  0  0  0  0  0  0  0  0
    3.4670   -2.5540    0.1040 H   0  0  0  0  0  0  0  0  0  0  0  0
    0.4930    2.4990   -2.2180 H   0  0  0  0  0  0  0  0  0  0  0  0
   -1.1110    1.7280   -2.1760 H   0  0  0  0  0  0  0  0  0  0  0  0
    0.4150    0.3490   -3.4710 H   0  0  0  0  0  0  0  0  0  0  0  0
    1.5860    0.3270   -2.1300 H   0  0  0  0  0  0  0  0  0  0  0  0
    1.8840   -4.9760    1.0440 H   0  0  0  0  0  0  0  0  0  0  0  0
    3.6500   -4.9020    0.8390 H   0  0  0  0  0  0  0  0  0  0  0  0
    2.5830   -4.7540   -0.5780 H   0  0  0  0  0  0  0  0  0  0  0  0
    3.5890   -2.5280    6.0550 H   0  0  0  0  0  0  0  0  0  0  0  0
    4.5110   -0.3400    6.7410 H   0  0  0  0  0  0  0  0  0  0  0  0
  1  2  1  0  0  0  0
  1  4  1  0  0  0  0
  1  6  2  0  0  0  0
  1  7  2  0  0  0  0
  2  3  1  0  0  0  0
  2 14  1  0  0  0  0
  3  5  1  0  0  0  0
  3 16  1  0  0  0  0
  3 25  1  1  0  0  0
  4  8  2  0  0  0  0
  4 10  1  0  0  0  0
  5 11  2  0  0  0  0
  5 15  1  0  0  0  0
  8  9  1  0  0  0  0
  8 26  1  0  0  0  0
  9 12  2  0  0  0  0
  9 17  1  0  0  0  0
 10 13  2  0  0  0  0
 10 27  1  0  0  0  0
 12 13  1  0  0  0  0
 12 18  1  0  0  0  0
 13 28  1  0  0  0  0
 14 20  1  0  0  0  0
 14 29  1  0  0  0  0
 14 30  1  0  0  0  0
 15 19  1  0  0  0  0
 16 21  1  0  0  0  0
 16 31  1  0  0  0  0
 16 32  1  0  0  0  0
 17 23  2  0  0  0  0
 17 33  1  0  0  0  0
 18 24  2  0  0  0  0
 18 34  1  0  0  0  0
 19 22  1  0  0  0  0
 19 35  1  0  0  0  0
 19 36  1  0  0  0  0
 20 21  1  0  0  0  0
 20 37  1  0  0  0  0
 20 38  1  0  0  0  0
 21 39  1  0  0  0  0
 21 40  1  0  0  0  0
 22 41  1  0  0  0  0
 22 42  1  0  0  0  0
 22 43  1  0  0  0  0
 23 24  1  0  0  0  0
 23 44  1  0  0  0  0
 24 45  1  0  0  0  0
M  END
>  <$CLUSTER>
718

>  <INDEX>
471448

$$$$
