Maybridge ML 00307
 OpenBabel04062209303D

 32 33  0  0  0  0  0  0  0  0999 V2000
   -0.7780   -0.1430   -2.2720 C   0  0  0  0  0  0  0  0  0  0  0  0
    0.1090    0.2820   -0.0900 N   0  0  0  0  0  0  0  0  0  0  0  0
   -1.9330   -0.8900   -4.3070 N   0  0  0  0  0  0  0  0  0  0  0  0
   -1.6810   -0.9570   -2.9100 N   0  0  0  0  0  0  0  0  0  0  0  0
   -0.7480   -0.4540   -0.8460 N   0  0  0  0  0  0  0  0  0  0  0  0
   -0.1380    0.6800   -2.8520 O   0  0  0  0  0  0  0  0  0  0  0  0
    0.2540   -0.1830    1.1150 C   0  0  0  0  0  0  0  0  0  0  0  0
   -2.9240   -1.5210   -4.7240 C   0  0  0  0  0  0  0  0  0  0  0  0
    1.2010   -0.1220    3.3150 N   0  0  0  0  0  0  0  0  0  0  0  0
   -4.3920   -2.2240   -6.5070 N   0  0  0  0  0  0  0  0  0  0  0  0
   -3.2660   -1.4790   -6.1830 C   0  0  0  0  0  0  0  0  0  0  0  0
    1.1640    0.4980    2.0920 C   0  0  0  0  0  0  0  0  0  0  0  0
    2.0100    0.4540    4.2380 C   0  0  0  0  0  0  0  0  0  0  0  0
   -4.7480   -2.2210   -7.8160 C   0  0  0  0  0  0  0  0  0  0  0  0
    1.8760    1.6250    1.7650 C   0  0  0  0  0  0  0  0  0  0  0  0
   -2.5370   -0.7710   -7.1020 C   0  0  0  0  0  0  0  0  0  0  0  0
    2.7680    1.5950    4.0000 C   0  0  0  0  0  0  0  0  0  0  0  0
   -4.0590   -1.5290   -8.8050 C   0  0  0  0  0  0  0  0  0  0  0  0
    2.6970    2.1870    2.7410 C   0  0  0  0  0  0  0  0  0  0  0  0
   -2.9350   -0.7920   -8.4380 C   0  0  0  0  0  0  0  0  0  0  0  0
   -2.1900   -1.6350   -2.3610 H   0  0  0  0  0  0  0  0  0  0  0  0
   -1.3310   -1.1750   -0.4440 H   0  0  0  0  0  0  0  0  0  0  0  0
   -0.2860   -1.0690    1.4150 H   0  0  0  0  0  0  0  0  0  0  0  0
   -3.5320   -2.0940   -4.0390 H   0  0  0  0  0  0  0  0  0  0  0  0
    2.0690    0.0000    5.2160 H   0  0  0  0  0  0  0  0  0  0  0  0
   -5.6190   -2.7900   -8.1070 H   0  0  0  0  0  0  0  0  0  0  0  0
    1.8020    2.0630    0.7810 H   0  0  0  0  0  0  0  0  0  0  0  0
   -1.6690   -0.2060   -6.7970 H   0  0  0  0  0  0  0  0  0  0  0  0
    3.3970    2.0120    4.7730 H   0  0  0  0  0  0  0  0  0  0  0  0
   -4.3870   -1.5620   -9.8330 H   0  0  0  0  0  0  0  0  0  0  0  0
    3.2730    3.0740    2.5230 H   0  0  0  0  0  0  0  0  0  0  0  0
   -2.3770   -0.2420   -9.1820 H   0  0  0  0  0  0  0  0  0  0  0  0
  1  4  1  0  0  0  0
  1  5  1  0  0  0  0
  1  6  2  0  0  0  0
  2  5  1  0  0  0  0
  2  7  2  0  0  0  0
  3  4  1  0  0  0  0
  3  8  2  0  0  0  0
  4 21  1  0  0  0  0
  5 22  1  0  0  0  0
  7 12  1  0  0  0  0
  7 23  1  0  0  0  0
  8 11  1  0  0  0  0
  8 24  1  0  0  0  0
  9 12  2  0  0  0  0
  9 13  1  0  0  0  0
 10 11  2  0  0  0  0
 10 14  1  0  0  0  0
 11 16  1  0  0  0  0
 12 15  1  0  0  0  0
 13 17  2  0  0  0  0
 13 25  1  0  0  0  0
 14 18  2  0  0  0  0
 14 26  1  0  0  0  0
 15 19  2  0  0  0  0
 15 27  1  0  0  0  0
 16 20  2  0  0  0  0
 16 28  1  0  0  0  0
 17 19  1  0  0  0  0
 17 29  1  0  0  0  0
 18 20  1  0  0  0  0
 18 30  1  0  0  0  0
 19 31  1  0  0  0  0
 20 32  1  0  0  0  0
M  END
>  <$CLUSTER>
872

>  <INDEX>
560500

$$$$
