Bionet 10X-0864
 OpenBabel04062209303D

 43 45  0  0  0  0  0  0  0  0999 V2000
   -4.4790   -3.2510   -6.4050 S   0  0  0  0  0  0  0  0  0  0  0  0
   -4.1080   -4.8820   -6.3650 N   0  0  0  0  0  0  0  0  0  0  0  0
    0.9160    0.2420    1.7950 C   0  0  0  0  0  0  0  0  0  0  0  0
    0.3990    1.3830    1.3990 N   0  0  0  0  0  0  0  0  0  0  0  0
    0.8630   -1.0510    0.6700 S   0  0  0  0  0  0  0  0  0  0  0  0
    0.0800   -0.0170   -0.4540 C   0  0  0  0  0  0  0  0  0  0  0  0
   -3.5990   -2.6040   -5.0240 C   0  0  0  0  0  0  0  0  0  0  0  0
   -0.0800    1.2330    0.1120 C   0  0  0  0  0  0  0  0  0  0  0  0
   -5.9030   -3.1190   -6.1440 O   0  0  0  0  0  0  0  0  0  0  0  0
   -3.9110   -2.7000   -7.6220 O   0  0  0  0  0  0  0  0  0  0  0  0
   -2.7140   -5.2860   -6.6910 C   0  0  0  0  0  0  0  0  0  0  0  0
   -4.6610   -5.6970   -5.2500 C   0  0  0  0  0  0  0  0  0  0  0  0
   -4.2030   -2.5620   -3.7700 C   0  0  0  0  0  0  0  0  0  0  0  0
   -2.3070   -2.1090   -5.1890 C   0  0  0  0  0  0  0  0  0  0  0  0
    1.5840    0.1020    3.3380 Cl  0  0  0  0  0  0  0  0  0  0  0  0
   -0.3180   -0.4960   -1.8020 C   0  0  0  0  0  0  0  0  0  0  0  0
   -1.6350   -1.0150   -1.6870 O   0  0  0  0  0  0  0  0  0  0  0  0
   -2.2150   -1.5230   -2.8400 C   0  0  0  0  0  0  0  0  0  0  0  0
   -3.5130   -2.0230   -2.6830 C   0  0  0  0  0  0  0  0  0  0  0  0
   -1.6150   -1.5690   -4.1010 C   0  0  0  0  0  0  0  0  0  0  0  0
   -2.5910   -6.7790   -6.9850 C   0  0  0  0  0  0  0  0  0  0  0  0
   -4.5710   -7.1950   -5.5190 C   0  0  0  0  0  0  0  0  0  0  0  0
   -3.1410   -7.6340   -5.8420 C   0  0  0  0  0  0  0  0  0  0  0  0
   -3.0860   -9.1190   -6.1890 C   0  0  0  0  0  0  0  0  0  0  0  0
   -0.5520    2.0450   -0.4210 H   0  0  0  0  0  0  0  0  0  0  0  0
   -2.0720   -5.0430   -5.8440 H   0  0  0  0  0  0  0  0  0  0  0  0
   -2.3850   -4.7290   -7.5680 H   0  0  0  0  0  0  0  0  0  0  0  0
   -5.7080   -5.4300   -5.1080 H   0  0  0  0  0  0  0  0  0  0  0  0
   -4.1020   -5.4710   -4.3420 H   0  0  0  0  0  0  0  0  0  0  0  0
   -5.2040   -2.9460   -3.6390 H   0  0  0  0  0  0  0  0  0  0  0  0
   -1.8380   -2.1430   -6.1610 H   0  0  0  0  0  0  0  0  0  0  0  0
    0.3640   -1.2770   -2.1380 H   0  0  0  0  0  0  0  0  0  0  0  0
   -0.3020    0.3300   -2.5130 H   0  0  0  0  0  0  0  0  0  0  0  0
   -3.9850   -1.9910   -1.7120 H   0  0  0  0  0  0  0  0  0  0  0  0
   -0.6140   -1.1860   -4.2350 H   0  0  0  0  0  0  0  0  0  0  0  0
   -1.5390   -7.0230   -7.1330 H   0  0  0  0  0  0  0  0  0  0  0  0
   -3.1480   -7.0060   -7.8940 H   0  0  0  0  0  0  0  0  0  0  0  0
   -5.2140   -7.4400   -6.3640 H   0  0  0  0  0  0  0  0  0  0  0  0
   -4.9130   -7.7330   -4.6350 H   0  0  0  0  0  0  0  0  0  0  0  0
   -2.5180   -7.4870   -4.9600 H   0  0  0  0  0  0  0  0  0  0  0  0
   -3.6990   -9.3090   -7.0700 H   0  0  0  0  0  0  0  0  0  0  0  0
   -3.4650   -9.7020   -5.3500 H   0  0  0  0  0  0  0  0  0  0  0  0
   -2.0550   -9.4060   -6.3950 H   0  0  0  0  0  0  0  0  0  0  0  0
  1  2  1  0  0  0  0
  1  7  1  0  0  0  0
  1  9  2  0  0  0  0
  1 10  2  0  0  0  0
  2 11  1  0  0  0  0
  2 12  1  0  0  0  0
  3  4  2  0  0  0  0
  3  5  1  0  0  0  0
  3 15  1  0  0  0  0
  4  8  1  0  0  0  0
  5  6  1  0  0  0  0
  6  8  2  0  0  0  0
  6 16  1  0  0  0  0
  7 13  2  0  0  0  0
  7 14  1  0  0  0  0
  8 25  1  0  0  0  0
 11 21  1  0  0  0  0
 11 26  1  0  0  0  0
 11 27  1  0  0  0  0
 12 22  1  0  0  0  0
 12 28  1  0  0  0  0
 12 29  1  0  0  0  0
 13 19  1  0  0  0  0
 13 30  1  0  0  0  0
 14 20  2  0  0  0  0
 14 31  1  0  0  0  0
 16 17  1  0  0  0  0
 16 32  1  0  0  0  0
 16 33  1  0  0  0  0
 17 18  1  0  0  0  0
 18 19  2  0  0  0  0
 18 20  1  0  0  0  0
 19 34  1  0  0  0  0
 20 35  1  0  0  0  0
 21 23  1  0  0  0  0
 21 36  1  0  0  0  0
 21 37  1  0  0  0  0
 22 23  1  0  0  0  0
 22 38  1  0  0  0  0
 22 39  1  0  0  0  0
 23 24  1  0  0  0  0
 23 40  1  0  0  0  0
 24 41  1  0  0  0  0
 24 42  1  0  0  0  0
 24 43  1  0  0  0  0
M  END
>  <$CLUSTER>
19

>  <INDEX>
8245

$$$$
