Tripos 1526-22023
 OpenBabel04062209303D

 49 50  0  0  0  0  0  0  0  0999 V2000
    2.3330   -2.6960   -0.4950 C   0  0  0  0  0  0  0  0  0  0  0  0
   -1.1630    1.3380    0.4970 N   0  0  0  0  0  0  0  0  0  0  0  0
   -1.4410    2.6290    0.7890 C   0  0  0  0  0  0  0  0  0  0  0  0
    3.6150   -2.8430   -0.9050 N   0  0  0  0  0  0  0  0  0  0  0  0
    4.5220   -2.0940   -1.7180 C   0  0  0  0  0  0  0  0  0  0  0  0
    1.8860   -1.4190   -0.6350 N   0  0  0  0  0  0  0  0  0  0  0  0
    5.9200   -2.3080   -1.6440 C   0  0  0  0  0  0  0  0  0  0  0  0
    1.4890   -4.0050    0.0980 S   0  0  0  0  0  0  0  0  0  0  0  0
   -0.8030    0.2860    1.4560 C   0  0  0  0  0  0  0  0  0  0  0  0
   -1.1890    0.8160   -0.8750 C   0  0  0  0  0  0  0  0  0  0  0  0
   -1.7400    3.5000   -0.0230 O   0  0  0  0  0  0  0  0  0  0  0  0
    6.7740   -1.5690   -2.4840 C   0  0  0  0  0  0  0  0  0  0  0  0
    4.0250   -1.1770   -2.6550 C   0  0  0  0  0  0  0  0  0  0  0  0
    0.1530    0.2080   -1.2790 C   0  0  0  0  0  0  0  0  0  0  0  0
    0.5520   -0.3410    1.1330 C   0  0  0  0  0  0  0  0  0  0  0  0
    0.5640   -0.8880   -0.2950 C   0  0  0  0  0  0  0  0  0  0  0  0
   -1.3620    2.9150    2.1170 O   0  0  0  0  0  0  0  0  0  0  0  0
    6.2610   -0.6410   -3.3900 C   0  0  0  0  0  0  0  0  0  0  0  0
    4.8870   -0.4490   -3.4780 C   0  0  0  0  0  0  0  0  0  0  0  0
    7.0070    0.1190   -4.2550 O   0  0  0  0  0  0  0  0  0  0  0  0
    6.5350   -3.2970   -0.6860 C   0  0  0  0  0  0  0  0  0  0  0  0
   -1.6300    4.2280    2.5580 C   0  0  0  0  0  0  0  0  0  0  0  0
    8.4190   -0.0450   -4.2090 C   0  0  0  0  0  0  0  0  0  0  0  0
   -1.4780    4.2890    4.0650 C   0  0  0  0  0  0  0  0  0  0  0  0
    4.0340   -3.6900   -0.5490 H   0  0  0  0  0  0  0  0  0  0  0  0
    2.5450   -0.7570   -1.0200 H   0  0  0  0  0  0  0  0  0  0  0  0
   -1.5660   -0.4920    1.4290 H   0  0  0  0  0  0  0  0  0  0  0  0
   -0.7610    0.7200    2.4550 H   0  0  0  0  0  0  0  0  0  0  0  0
   -1.4260    1.6320   -1.5580 H   0  0  0  0  0  0  0  0  0  0  0  0
   -1.9590    0.0480   -0.9450 H   0  0  0  0  0  0  0  0  0  0  0  0
    7.8410   -1.7230   -2.4260 H   0  0  0  0  0  0  0  0  0  0  0  0
    2.9580   -1.0310   -2.7420 H   0  0  0  0  0  0  0  0  0  0  0  0
    0.9130    0.9890   -1.2840 H   0  0  0  0  0  0  0  0  0  0  0  0
    0.0660   -0.2210   -2.2770 H   0  0  0  0  0  0  0  0  0  0  0  0
    0.7450   -1.1560    1.8310 H   0  0  0  0  0  0  0  0  0  0  0  0
    1.3300    0.4160    1.2340 H   0  0  0  0  0  0  0  0  0  0  0  0
   -0.1540   -1.7050   -0.3620 H   0  0  0  0  0  0  0  0  0  0  0  0
    4.4860    0.2640   -4.1830 H   0  0  0  0  0  0  0  0  0  0  0  0
    5.7470   -3.7840   -0.1110 H   0  0  0  0  0  0  0  0  0  0  0  0
    7.2100   -2.7750   -0.0080 H   0  0  0  0  0  0  0  0  0  0  0  0
    7.0930   -4.0470   -1.2470 H   0  0  0  0  0  0  0  0  0  0  0  0
   -2.6480    4.5040    2.2830 H   0  0  0  0  0  0  0  0  0  0  0  0
   -0.9280    4.9190    2.0930 H   0  0  0  0  0  0  0  0  0  0  0  0
    8.8850    0.6130   -4.9420 H   0  0  0  0  0  0  0  0  0  0  0  0
    8.6720   -1.0800   -4.4370 H   0  0  0  0  0  0  0  0  0  0  0  0
    8.7820    0.2060   -3.2120 H   0  0  0  0  0  0  0  0  0  0  0  0
   -2.1810    3.5970    4.5290 H   0  0  0  0  0  0  0  0  0  0  0  0
   -1.6840    5.3020    4.4100 H   0  0  0  0  0  0  0  0  0  0  0  0
   -0.4600    4.0110    4.3390 H   0  0  0  0  0  0  0  0  0  0  0  0
  1  4  1  0  0  0  0
  1  6  1  0  0  0  0
  1  8  2  0  0  0  0
  2  3  1  0  0  0  0
  2  9  1  0  0  0  0
  2 10  1  0  0  0  0
  3 11  2  0  0  0  0
  3 17  1  0  0  0  0
  4  5  1  0  0  0  0
  4 25  1  0  0  0  0
  5  7  2  0  0  0  0
  5 13  1  0  0  0  0
  6 16  1  0  0  0  0
  6 26  1  0  0  0  0
  7 12  1  0  0  0  0
  7 21  1  0  0  0  0
  9 15  1  0  0  0  0
  9 27  1  0  0  0  0
  9 28  1  0  0  0  0
 10 14  1  0  0  0  0
 10 29  1  0  0  0  0
 10 30  1  0  0  0  0
 12 18  2  0  0  0  0
 12 31  1  0  0  0  0
 13 19  2  0  0  0  0
 13 32  1  0  0  0  0
 14 16  1  0  0  0  0
 14 33  1  0  0  0  0
 14 34  1  0  0  0  0
 15 16  1  0  0  0  0
 15 35  1  0  0  0  0
 15 36  1  0  0  0  0
 16 37  1  0  0  0  0
 17 22  1  0  0  0  0
 18 19  1  0  0  0  0
 18 20  1  0  0  0  0
 19 38  1  0  0  0  0
 20 23  1  0  0  0  0
 21 39  1  0  0  0  0
 21 40  1  0  0  0  0
 21 41  1  0  0  0  0
 22 24  1  0  0  0  0
 22 42  1  0  0  0  0
 22 43  1  0  0  0  0
 23 44  1  0  0  0  0
 23 45  1  0  0  0  0
 23 46  1  0  0  0  0
 24 47  1  0  0  0  0
 24 48  1  0  0  0  0
 24 49  1  0  0  0  0
M  END
>  <$CLUSTER>
683

>  <INDEX>
448656

$$$$
