InterBioScreen STOCK5S-13559
 OpenBabel04062209303D

 39 41  0  0  0  0  0  0  0  0999 V2000
    1.4240   -0.4240   -0.7690 S   0  0  0  0  0  0  0  0  0  0  0  0
   -0.2240   -0.4330   -0.3160 C   0  0  0  0  0  0  0  0  0  0  0  0
    1.2360   -2.0680   -1.2070 C   0  0  0  0  0  0  0  0  0  0  0  0
    0.0280   -2.5490   -1.0170 N   0  0  0  0  0  0  0  0  0  0  0  0
   -0.8630    0.6830    0.1920 N   0  0  0  0  0  0  0  0  0  0  0  0
   -0.8240   -1.5920   -0.4960 N   0  0  0  0  0  0  0  0  0  0  0  0
   -0.3020    1.9340    0.4100 C   0  0  0  0  0  0  0  0  0  0  0  0
   -1.3220    2.8910    0.9770 C   0  0  0  0  0  0  0  0  0  0  0  0
   -2.4130    2.5240    1.7300 C   0  0  0  0  0  0  0  0  0  0  0  0
   -3.2890    3.4850    2.2390 C   0  0  0  0  0  0  0  0  0  0  0  0
    2.3600   -2.8810   -1.7610 C   0  0  0  0  0  0  0  0  0  0  0  0
    0.8500    2.3010    0.2020 O   0  0  0  0  0  0  0  0  0  0  0  0
   -3.0580    4.8400    2.0050 C   0  0  0  0  0  0  0  0  0  0  0  0
   -1.0670    4.2810    0.7550 C   0  0  0  0  0  0  0  0  0  0  0  0
   -1.9460    5.2370    1.2650 C   0  0  0  0  0  0  0  0  0  0  0  0
    3.6560   -2.3740   -1.9550 C   0  0  0  0  0  0  0  0  0  0  0  0
    2.1240   -4.2240   -2.1100 C   0  0  0  0  0  0  0  0  0  0  0  0
    4.4170   -4.5040   -2.8160 C   0  0  0  0  0  0  0  0  0  0  0  0
   -4.4170    3.1880    2.9890 O   0  0  0  0  0  0  0  0  0  0  0  0
    4.6740   -3.1800   -2.4780 C   0  0  0  0  0  0  0  0  0  0  0  0
    3.1420   -5.0270   -2.6320 C   0  0  0  0  0  0  0  0  0  0  0  0
    5.6670   -5.4680   -3.4500 Cl  0  0  0  0  0  0  0  0  0  0  0  0
   -3.9690    5.7170    2.5550 O   0  0  0  0  0  0  0  0  0  0  0  0
   -4.6920    1.8160    3.2460 C   0  0  0  0  0  0  0  0  0  0  0  0
   -3.7550    7.1060    2.3370 C   0  0  0  0  0  0  0  0  0  0  0  0
   -1.8390    0.5770    0.4290 H   0  0  0  0  0  0  0  0  0  0  0  0
   -2.5950    1.4780    1.9300 H   0  0  0  0  0  0  0  0  0  0  0  0
   -0.1970    4.5890    0.1940 H   0  0  0  0  0  0  0  0  0  0  0  0
   -1.7640    6.2860    1.0860 H   0  0  0  0  0  0  0  0  0  0  0  0
    3.8700   -1.3470   -1.6970 H   0  0  0  0  0  0  0  0  0  0  0  0
    1.1380   -4.6420   -1.9720 H   0  0  0  0  0  0  0  0  0  0  0  0
    5.6640   -2.7720   -2.6200 H   0  0  0  0  0  0  0  0  0  0  0  0
    2.9380   -6.0550   -2.8930 H   0  0  0  0  0  0  0  0  0  0  0  0
   -5.6010    1.7330    3.8420 H   0  0  0  0  0  0  0  0  0  0  0  0
   -3.8580    1.3740    3.7920 H   0  0  0  0  0  0  0  0  0  0  0  0
   -4.8270    1.2890    2.3010 H   0  0  0  0  0  0  0  0  0  0  0  0
   -4.5450    7.6760    2.8250 H   0  0  0  0  0  0  0  0  0  0  0  0
   -3.7660    7.3120    1.2670 H   0  0  0  0  0  0  0  0  0  0  0  0
   -2.7890    7.3940    2.7520 H   0  0  0  0  0  0  0  0  0  0  0  0
  1  2  1  0  0  0  0
  1  3  1  0  0  0  0
  2  5  1  0  0  0  0
  2  6  2  0  0  0  0
  3  4  2  0  0  0  0
  3 11  1  0  0  0  0
  4  6  1  0  0  0  0
  5  7  1  0  0  0  0
  5 26  1  0  0  0  0
  7  8  1  0  0  0  0
  7 12  2  0  0  0  0
  8  9  1  0  0  0  0
  8 14  2  0  0  0  0
  9 10  2  0  0  0  0
  9 27  1  0  0  0  0
 10 13  1  0  0  0  0
 10 19  1  0  0  0  0
 11 16  2  0  0  0  0
 11 17  1  0  0  0  0
 13 15  2  0  0  0  0
 13 23  1  0  0  0  0
 14 15  1  0  0  0  0
 14 28  1  0  0  0  0
 15 29  1  0  0  0  0
 16 20  1  0  0  0  0
 16 30  1  0  0  0  0
 17 21  2  0  0  0  0
 17 31  1  0  0  0  0
 18 20  2  0  0  0  0
 18 21  1  0  0  0  0
 18 22  1  0  0  0  0
 19 24  1  0  0  0  0
 20 32  1  0  0  0  0
 21 33  1  0  0  0  0
 23 25  1  0  0  0  0
 24 34  1  0  0  0  0
 24 35  1  0  0  0  0
 24 36  1  0  0  0  0
 25 37  1  0  0  0  0
 25 38  1  0  0  0  0
 25 39  1  0  0  0  0
M  END
>  <$CLUSTER>
563

>  <INDEX>
366816

$$$$
