Otava 0120630218
 OpenBabel04062209303D

 34 35  0  0  1  0  0  0  0  0999 V2000
    1.2820    0.5840   -1.0500 C   0  0  0  0  0  0  0  0  0  0  0  0
    0.2440   -0.0850   -0.2560 C   0  0  0  0  0  0  0  0  0  0  0  0
    2.5260    0.0500   -0.9470 N   0  0  0  0  0  0  0  0  0  0  0  0
    3.7140    0.5230   -1.6380 C   0  0  1  0  0  0  0  0  0  0  0  0
    4.9700    0.2790   -0.8060 C   0  0  0  0  0  0  0  0  0  0  0  0
   -0.5510    0.6010    0.6620 C   0  0  0  0  0  0  0  0  0  0  0  0
    1.0180    1.5420   -1.7690 O   0  0  0  0  0  0  0  0  0  0  0  0
    3.8280   -0.1420   -3.0060 C   0  0  0  0  0  0  0  0  0  0  0  0
    5.7130   -0.7390   -1.0200 O   0  0  0  0  0  0  0  0  0  0  0  0
    5.2280    1.1630    0.1220 O   0  5  0  0  0  0  0  0  0  0  0  0
   -0.3210    2.4400    1.0670 Br  0  0  0  0  0  0  0  0  0  0  0  0
    4.9560    0.3650   -3.8860 C   0  0  0  0  0  0  0  0  0  0  0  0
    0.0440   -1.4570   -0.4670 C   0  0  0  0  0  0  0  0  0  0  0  0
   -1.5470   -0.0870    1.3670 C   0  0  0  0  0  0  0  0  0  0  0  0
    6.2250   -0.1960   -3.7740 C   0  0  0  0  0  0  0  0  0  0  0  0
    4.7480    1.4710   -4.7060 C   0  0  0  0  0  0  0  0  0  0  0  0
   -0.9490   -2.1370    0.2380 C   0  0  0  0  0  0  0  0  0  0  0  0
   -1.7450   -1.4520    1.1530 C   0  0  0  0  0  0  0  0  0  0  0  0
    5.8010    1.9750   -5.4710 C   0  0  0  0  0  0  0  0  0  0  0  0
    7.2770    0.3100   -4.5390 C   0  0  0  0  0  0  0  0  0  0  0  0
    7.0640    1.3940   -5.3870 C   0  0  0  0  0  0  0  0  0  0  0  0
    2.6360   -0.7470   -0.3360 H   0  0  0  0  0  0  0  0  0  0  0  0
    3.6200    1.5990   -1.7830 H   0  0  0  0  0  0  0  0  0  0  0  0
    2.8900    0.0180   -3.5370 H   0  0  0  0  0  0  0  0  0  0  0  0
    3.9790   -1.2100   -2.8490 H   0  0  0  0  0  0  0  0  0  0  0  0
    0.6600   -1.9880   -1.1770 H   0  0  0  0  0  0  0  0  0  0  0  0
   -2.1640    0.4410    2.0790 H   0  0  0  0  0  0  0  0  0  0  0  0
    6.3950   -1.0200   -3.0970 H   0  0  0  0  0  0  0  0  0  0  0  0
    3.7750    1.9370   -4.7500 H   0  0  0  0  0  0  0  0  0  0  0  0
   -1.1010   -3.1940    0.0750 H   0  0  0  0  0  0  0  0  0  0  0  0
   -2.5160   -1.9770    1.6970 H   0  0  0  0  0  0  0  0  0  0  0  0
    5.6360    2.8160   -6.1280 H   0  0  0  0  0  0  0  0  0  0  0  0
    8.2570   -0.1390   -4.4730 H   0  0  0  0  0  0  0  0  0  0  0  0
    7.8780    1.7840   -5.9800 H   0  0  0  0  0  0  0  0  0  0  0  0
  1  2  1  0  0  0  0
  1  3  1  0  0  0  0
  1  7  2  0  0  0  0
  2  6  2  0  0  0  0
  2 13  1  0  0  0  0
  3  4  1  0  0  0  0
  3 22  1  0  0  0  0
  4  5  1  0  0  0  0
  4  8  1  0  0  0  0
  4 23  1  6  0  0  0
  5  9  2  0  0  0  0
  5 10  1  0  0  0  0
  6 11  1  0  0  0  0
  6 14  1  0  0  0  0
  8 12  1  0  0  0  0
  8 24  1  0  0  0  0
  8 25  1  0  0  0  0
 12 15  1  0  0  0  0
 12 16  2  0  0  0  0
 13 17  2  0  0  0  0
 13 26  1  0  0  0  0
 14 18  2  0  0  0  0
 14 27  1  0  0  0  0
 15 20  2  0  0  0  0
 15 28  1  0  0  0  0
 16 19  1  0  0  0  0
 16 29  1  0  0  0  0
 17 18  1  0  0  0  0
 17 30  1  0  0  0  0
 18 31  1  0  0  0  0
 19 21  2  0  0  0  0
 19 32  1  0  0  0  0
 20 21  1  0  0  0  0
 20 33  1  0  0  0  0
 21 34  1  0  0  0  0
M  CHG  1  10  -1
M  END
>  <$CLUSTER>
860

>  <INDEX>
431950

$$$$
