Asinex ASN 02617640
 OpenBabel04062209303D

 46 48  0  0  0  0  0  0  0  0999 V2000
    0.0050   -0.0250   -0.0460 C   0  0  0  0  0  0  0  0  0  0  0  0
   -2.1860   -4.7180    1.2650 N   0  0  0  0  0  0  0  0  0  0  0  0
    1.3250   -0.3190   -0.3340 C   0  0  0  0  0  0  0  0  0  0  0  0
   -0.9360   -5.1390    0.9180 C   0  0  0  0  0  0  0  0  0  0  0  0
   -0.0730   -4.1660    1.1000 N   0  0  0  0  0  0  0  0  0  0  0  0
   -2.0020   -3.4520    1.6570 C   0  0  0  0  0  0  0  0  0  0  0  0
   -0.6730    1.0080   -1.2190 S   0  0  0  0  0  0  0  0  0  0  0  0
   -0.7700   -3.0770    1.5790 N   0  0  0  0  0  0  0  0  0  0  0  0
    1.7720    0.3150   -1.5300 C   0  0  0  0  0  0  0  0  0  0  0  0
    0.7810    1.0700   -2.1140 C   0  0  0  0  0  0  0  0  0  0  0  0
   -0.7300   -0.4810    1.0410 N   0  0  0  0  0  0  0  0  0  0  0  0
    2.1530   -1.1640    0.4740 C   0  0  0  0  0  0  0  0  0  0  0  0
    2.8210   -1.8480    1.1300 N   0  0  0  0  0  0  0  0  0  0  0  0
   -3.3870   -2.4290    2.2280 S   0  0  0  0  0  0  0  0  0  0  0  0
   -2.0580   -0.1860    1.3300 C   0  0  0  0  0  0  0  0  0  0  0  0
   -0.5350   -6.4720    0.3670 C   0  0  0  0  0  0  0  0  0  0  0  0
   -2.8390    0.5220    0.7030 O   0  0  0  0  0  0  0  0  0  0  0  0
   -2.4970   -0.8730    2.6000 C   0  0  0  0  0  0  0  0  0  0  0  0
   -1.2560   -7.0900   -0.6640 C   0  0  0  0  0  0  0  0  0  0  0  0
    0.5930   -7.1230    0.8860 C   0  0  0  0  0  0  0  0  0  0  0  0
   -3.3880   -5.5090    1.2000 C   0  0  0  0  0  0  0  0  0  0  0  0
    3.1070    0.1640   -2.0390 C   0  0  0  0  0  0  0  0  0  0  0  0
    0.9790   -8.3750    0.4010 C   0  0  0  0  0  0  0  0  0  0  0  0
   -0.8680   -8.3420   -1.1490 C   0  0  0  0  0  0  0  0  0  0  0  0
    0.2460   -8.9840   -0.6150 C   0  0  0  0  0  0  0  0  0  0  0  0
    0.9100    1.8380   -3.3340 C   0  0  0  0  0  0  0  0  0  0  0  0
    0.6530  -10.3250   -1.1330 C   0  0  0  0  0  0  0  0  0  0  0  0
   -0.2500   -1.0900    1.6890 H   0  0  0  0  0  0  0  0  0  0  0  0
   -1.6190   -1.1000    3.2050 H   0  0  0  0  0  0  0  0  0  0  0  0
   -3.1580   -0.2080    3.1550 H   0  0  0  0  0  0  0  0  0  0  0  0
   -2.1180   -6.5950   -1.0870 H   0  0  0  0  0  0  0  0  0  0  0  0
    1.1690   -6.6520    1.6690 H   0  0  0  0  0  0  0  0  0  0  0  0
   -3.1480   -6.5050    0.8280 H   0  0  0  0  0  0  0  0  0  0  0  0
   -4.1010   -5.0320    0.5270 H   0  0  0  0  0  0  0  0  0  0  0  0
   -3.8250   -5.5890    2.1950 H   0  0  0  0  0  0  0  0  0  0  0  0
    3.6770   -0.4880   -1.3770 H   0  0  0  0  0  0  0  0  0  0  0  0
    3.5890    1.1400   -2.0900 H   0  0  0  0  0  0  0  0  0  0  0  0
    3.0680   -0.2750   -3.0360 H   0  0  0  0  0  0  0  0  0  0  0  0
    1.8450   -8.8710    0.8140 H   0  0  0  0  0  0  0  0  0  0  0  0
   -1.4340   -8.8120   -1.9400 H   0  0  0  0  0  0  0  0  0  0  0  0
   -0.0360    2.3330   -3.5540 H   0  0  0  0  0  0  0  0  0  0  0  0
    1.1710    1.1720   -4.1570 H   0  0  0  0  0  0  0  0  0  0  0  0
    1.6920    2.5870   -3.2110 H   0  0  0  0  0  0  0  0  0  0  0  0
    1.5400  -10.6670   -0.5990 H   0  0  0  0  0  0  0  0  0  0  0  0
    0.8760  -10.2510   -2.1970 H   0  0  0  0  0  0  0  0  0  0  0  0
   -0.1600  -11.0350   -0.9800 H   0  0  0  0  0  0  0  0  0  0  0  0
  1  3  2  0  0  0  0
  1  7  1  0  0  0  0
  1 11  1  0  0  0  0
  2  4  1  0  0  0  0
  2  6  1  0  0  0  0
  2 21  1  0  0  0  0
  3  9  1  0  0  0  0
  3 12  1  0  0  0  0
  4  5  2  0  0  0  0
  4 16  1  0  0  0  0
  5  8  1  0  0  0  0
  6  8  2  0  0  0  0
  6 14  1  0  0  0  0
  7 10  1  0  0  0  0
  9 10  2  0  0  0  0
  9 22  1  0  0  0  0
 10 26  1  0  0  0  0
 11 15  1  0  0  0  0
 11 28  1  0  0  0  0
 12 13  3  0  0  0  0
 14 18  1  0  0  0  0
 15 17  2  0  0  0  0
 15 18  1  0  0  0  0
 16 19  1  0  0  0  0
 16 20  2  0  0  0  0
 18 29  1  0  0  0  0
 18 30  1  0  0  0  0
 19 24  2  0  0  0  0
 19 31  1  0  0  0  0
 20 23  1  0  0  0  0
 20 32  1  0  0  0  0
 21 33  1  0  0  0  0
 21 34  1  0  0  0  0
 21 35  1  0  0  0  0
 22 36  1  0  0  0  0
 22 37  1  0  0  0  0
 22 38  1  0  0  0  0
 23 25  2  0  0  0  0
 23 39  1  0  0  0  0
 24 25  1  0  0  0  0
 24 40  1  0  0  0  0
 25 27  1  0  0  0  0
 26 41  1  0  0  0  0
 26 42  1  0  0  0  0
 26 43  1  0  0  0  0
 27 44  1  0  0  0  0
 27 45  1  0  0  0  0
 27 46  1  0  0  0  0
M  END
>  <$CLUSTER>
241

>  <INDEX>
127199

$$$$
