Chem T&I AMSACS-08601
 OpenBabel04062209303D

 42 44  0  0  0  0  0  0  0  0999 V2000
   -0.6650   -6.3630   -1.8330 S   0  0  0  0  0  0  0  0  0  0  0  0
   -1.3360    0.2740    0.6000 N   0  0  0  0  0  0  0  0  0  0  0  0
    0.7790    0.6060   -0.1760 C   0  0  0  0  0  0  0  0  0  0  0  0
   -0.1520   -0.2910    0.2860 N   0  0  0  0  0  0  0  0  0  0  0  0
    0.1480    1.8310   -0.1540 C   0  0  0  0  0  0  0  0  0  0  0  0
   -1.1450    1.5660    0.3300 C   0  0  0  0  0  0  0  0  0  0  0  0
    1.0980   -6.6390   -1.7950 C   0  0  0  0  0  0  0  0  0  0  0  0
    1.7290   -6.8070   -0.5640 C   0  0  0  0  0  0  0  0  0  0  0  0
   -1.1340   -6.8290   -3.1330 O   0  0  0  0  0  0  0  0  0  0  0  0
   -1.2190   -6.9500   -0.6160 O   0  0  0  0  0  0  0  0  0  0  0  0
   -0.7390   -4.7140   -1.7630 N   0  0  0  0  0  0  0  0  0  0  0  0
    3.1060   -7.0260   -0.5360 C   0  0  0  0  0  0  0  0  0  0  0  0
    1.8060   -6.6930   -2.9880 C   0  0  0  0  0  0  0  0  0  0  0  0
    3.8320   -7.0780   -1.7260 C   0  0  0  0  0  0  0  0  0  0  0  0
    3.1830   -6.9120   -2.9500 C   0  0  0  0  0  0  0  0  0  0  0  0
    0.7420    3.2580   -0.5830 Cl  0  0  0  0  0  0  0  0  0  0  0  0
    0.0050   -1.7220    0.4610 C   0  0  0  0  0  0  0  0  0  0  0  0
    2.1550    0.2390   -0.5900 C   0  0  0  0  0  0  0  0  0  0  0  0
   -0.4530   -2.5040   -0.7570 C   0  0  0  0  0  0  0  0  0  0  0  0
   -0.2990   -3.9950   -0.5750 C   0  0  0  0  0  0  0  0  0  0  0  0
    3.7830   -7.1970    0.7010 C   0  0  0  0  0  0  0  0  0  0  0  0
    5.2370   -7.3040   -1.6770 C   0  0  0  0  0  0  0  0  0  0  0  0
    5.1600   -7.4180    0.7340 C   0  0  0  0  0  0  0  0  0  0  0  0
    5.8860   -7.4710   -0.4530 C   0  0  0  0  0  0  0  0  0  0  0  0
   -1.9010    2.3250    0.4680 H   0  0  0  0  0  0  0  0  0  0  0  0
    1.1610   -6.7680    0.3540 H   0  0  0  0  0  0  0  0  0  0  0  0
   -1.7060   -4.4630   -1.9090 H   0  0  0  0  0  0  0  0  0  0  0  0
    1.2980   -6.5670   -3.9320 H   0  0  0  0  0  0  0  0  0  0  0  0
    3.7480   -6.9530   -3.8700 H   0  0  0  0  0  0  0  0  0  0  0  0
   -0.5850   -2.0370    1.3220 H   0  0  0  0  0  0  0  0  0  0  0  0
    1.0580   -1.9400    0.6420 H   0  0  0  0  0  0  0  0  0  0  0  0
    2.2970   -0.8350   -0.4680 H   0  0  0  0  0  0  0  0  0  0  0  0
    2.8750    0.7730    0.0290 H   0  0  0  0  0  0  0  0  0  0  0  0
    2.3040    0.5090   -1.6360 H   0  0  0  0  0  0  0  0  0  0  0  0
    0.1410   -2.1930   -1.6160 H   0  0  0  0  0  0  0  0  0  0  0  0
   -1.5040   -2.2810   -0.9420 H   0  0  0  0  0  0  0  0  0  0  0  0
    0.7500   -4.2250   -0.3870 H   0  0  0  0  0  0  0  0  0  0  0  0
   -0.8990   -4.3140    0.2770 H   0  0  0  0  0  0  0  0  0  0  0  0
    3.2260   -7.1550    1.6250 H   0  0  0  0  0  0  0  0  0  0  0  0
    5.8050   -7.3470   -2.5950 H   0  0  0  0  0  0  0  0  0  0  0  0
    5.6630   -7.5480    1.6810 H   0  0  0  0  0  0  0  0  0  0  0  0
    6.9520   -7.6410   -0.4260 H   0  0  0  0  0  0  0  0  0  0  0  0
  1  7  1  0  0  0  0
  1  9  2  0  0  0  0
  1 10  2  0  0  0  0
  1 11  1  0  0  0  0
  2  4  1  0  0  0  0
  2  6  2  0  0  0  0
  3  4  1  0  0  0  0
  3  5  2  0  0  0  0
  3 18  1  0  0  0  0
  4 17  1  0  0  0  0
  5  6  1  0  0  0  0
  5 16  1  0  0  0  0
  6 25  1  0  0  0  0
  7  8  2  0  0  0  0
  7 13  1  0  0  0  0
  8 12  1  0  0  0  0
  8 26  1  0  0  0  0
 11 20  1  0  0  0  0
 11 27  1  0  0  0  0
 12 14  2  0  0  0  0
 12 21  1  0  0  0  0
 13 15  2  0  0  0  0
 13 28  1  0  0  0  0
 14 15  1  0  0  0  0
 14 22  1  0  0  0  0
 15 29  1  0  0  0  0
 17 19  1  0  0  0  0
 17 30  1  0  0  0  0
 17 31  1  0  0  0  0
 18 32  1  0  0  0  0
 18 33  1  0  0  0  0
 18 34  1  0  0  0  0
 19 20  1  0  0  0  0
 19 35  1  0  0  0  0
 19 36  1  0  0  0  0
 20 37  1  0  0  0  0
 20 38  1  0  0  0  0
 21 23  2  0  0  0  0
 21 39  1  0  0  0  0
 22 24  2  0  0  0  0
 22 40  1  0  0  0  0
 23 24  1  0  0  0  0
 23 41  1  0  0  0  0
 24 42  1  0  0  0  0
M  END
>  <$CLUSTER>
787

>  <INDEX>
516253

$$$$
