Tripos 1557-13590
 OpenBabel04062209303D

 45 47  0  0  0  0  0  0  0  0999 V2000
    0.8590    1.9170   -0.5700 S   0  0  0  0  0  0  0  0  0  0  0  0
    0.3520    0.4420   -1.2820 N   0  0  0  0  0  0  0  0  0  0  0  0
   -0.7100    2.5850   -0.0630 C   0  0  0  0  0  0  0  0  0  0  0  0
    1.3590    2.7750   -1.6280 O   0  0  0  0  0  0  0  0  0  0  0  0
    1.6480    1.6790    0.6210 O   0  0  0  0  0  0  0  0  0  0  0  0
   -3.1280    3.7130    0.7890 C   0  0  0  0  0  0  0  0  0  0  0  0
   -4.4190    4.3290    1.2090 C   0  0  0  0  0  0  0  0  0  0  0  0
   -1.4570    3.3980   -0.9310 C   0  0  0  0  0  0  0  0  0  0  0  0
   -1.1730    2.3640    1.2480 C   0  0  0  0  0  0  0  0  0  0  0  0
   -5.0510    5.0240    0.4150 O   0  0  0  0  0  0  0  0  0  0  0  0
   -2.6670    3.9520   -0.5060 C   0  0  0  0  0  0  0  0  0  0  0  0
   -2.3830    2.9200    1.6650 C   0  0  0  0  0  0  0  0  0  0  0  0
   -0.0880   -0.6140   -0.4100 C   0  0  0  0  0  0  0  0  0  0  0  0
   -0.9920   -2.6270    1.2970 C   0  0  0  0  0  0  0  0  0  0  0  0
   -1.4810   -3.7370    2.2170 C   0  0  0  0  0  0  0  0  0  0  0  0
   -1.4380   -0.9750   -0.4100 C   0  0  0  0  0  0  0  0  0  0  0  0
    0.8100   -1.2600    0.4440 C   0  0  0  0  0  0  0  0  0  0  0  0
    0.3550   -2.2670    1.2960 C   0  0  0  0  0  0  0  0  0  0  0  0
   -1.8880   -1.9830    0.4450 C   0  0  0  0  0  0  0  0  0  0  0  0
   -1.4010   -5.1010    1.5480 C   0  0  0  0  0  0  0  0  0  0  0  0
   -4.9320    4.0860    2.6040 C   0  0  0  0  0  0  0  0  0  0  0  0
   -0.2360   -5.8690    1.6490 C   0  0  0  0  0  0  0  0  0  0  0  0
   -2.4780   -5.5840    0.7990 C   0  0  0  0  0  0  0  0  0  0  0  0
   -2.3970   -6.8280    0.1720 C   0  0  0  0  0  0  0  0  0  0  0  0
   -0.1570   -7.1120    1.0200 C   0  0  0  0  0  0  0  0  0  0  0  0
   -1.2380   -7.5910    0.2840 C   0  0  0  0  0  0  0  0  0  0  0  0
    0.3620    0.3180   -2.2840 H   0  0  0  0  0  0  0  0  0  0  0  0
   -1.0950    3.5950   -1.9290 H   0  0  0  0  0  0  0  0  0  0  0  0
   -0.5910    1.7640    1.9320 H   0  0  0  0  0  0  0  0  0  0  0  0
   -3.2460    4.5660   -1.1800 H   0  0  0  0  0  0  0  0  0  0  0  0
   -2.7440    2.7370    2.6660 H   0  0  0  0  0  0  0  0  0  0  0  0
   -2.5170   -3.5380    2.4900 H   0  0  0  0  0  0  0  0  0  0  0  0
   -0.8640   -3.7480    3.1160 H   0  0  0  0  0  0  0  0  0  0  0  0
   -2.1320   -0.4750   -1.0700 H   0  0  0  0  0  0  0  0  0  0  0  0
    1.8530   -0.9810    0.4450 H   0  0  0  0  0  0  0  0  0  0  0  0
    1.0470   -2.7680    1.9560 H   0  0  0  0  0  0  0  0  0  0  0  0
   -2.9310   -2.2640    0.4460 H   0  0  0  0  0  0  0  0  0  0  0  0
   -4.2300    3.4500    3.1430 H   0  0  0  0  0  0  0  0  0  0  0  0
   -5.9030    3.5940    2.5530 H   0  0  0  0  0  0  0  0  0  0  0  0
   -5.0330    5.0380    3.1250 H   0  0  0  0  0  0  0  0  0  0  0  0
    0.6050   -5.4980    2.2160 H   0  0  0  0  0  0  0  0  0  0  0  0
   -3.3760   -4.9920    0.7050 H   0  0  0  0  0  0  0  0  0  0  0  0
   -3.2340   -7.1990   -0.4010 H   0  0  0  0  0  0  0  0  0  0  0  0
    0.7430   -7.7030    1.1040 H   0  0  0  0  0  0  0  0  0  0  0  0
   -1.1770   -8.5550   -0.2000 H   0  0  0  0  0  0  0  0  0  0  0  0
  1  2  1  0  0  0  0
  1  3  1  0  0  0  0
  1  4  2  0  0  0  0
  1  5  2  0  0  0  0
  2 13  1  0  0  0  0
  2 27  1  0  0  0  0
  3  8  2  0  0  0  0
  3  9  1  0  0  0  0
  6  7  1  0  0  0  0
  6 11  2  0  0  0  0
  6 12  1  0  0  0  0
  7 10  2  0  0  0  0
  7 21  1  0  0  0  0
  8 11  1  0  0  0  0
  8 28  1  0  0  0  0
  9 12  2  0  0  0  0
  9 29  1  0  0  0  0
 11 30  1  0  0  0  0
 12 31  1  0  0  0  0
 13 16  1  0  0  0  0
 13 17  2  0  0  0  0
 14 15  1  0  0  0  0
 14 18  2  0  0  0  0
 14 19  1  0  0  0  0
 15 20  1  0  0  0  0
 15 32  1  0  0  0  0
 15 33  1  0  0  0  0
 16 19  2  0  0  0  0
 16 34  1  0  0  0  0
 17 18  1  0  0  0  0
 17 35  1  0  0  0  0
 18 36  1  0  0  0  0
 19 37  1  0  0  0  0
 20 22  1  0  0  0  0
 20 23  2  0  0  0  0
 21 38  1  0  0  0  0
 21 39  1  0  0  0  0
 21 40  1  0  0  0  0
 22 25  2  0  0  0  0
 22 41  1  0  0  0  0
 23 24  1  0  0  0  0
 23 42  1  0  0  0  0
 24 26  2  0  0  0  0
 24 43  1  0  0  0  0
 25 26  1  0  0  0  0
 25 44  1  0  0  0  0
 26 45  1  0  0  0  0
M  END
>  <$CLUSTER>
723

>  <INDEX>
472375

$$$$
