EMC Microcollections 013A0485
 OpenBabel04062209303D

 40 41  0  0  1  0  0  0  0  0999 V2000
    0.2900    1.5800   -1.5560 C   0  0  0  0  0  0  0  0  0  0  0  0
    1.6510    1.7220   -1.6580 N   0  0  0  0  0  0  0  0  0  0  0  0
    1.9130    2.6960   -2.5000 C   0  0  0  0  0  0  0  0  0  0  0  0
    0.5590    3.4790   -3.2020 S   0  0  0  0  0  0  0  0  0  0  0  0
   -0.3110    0.5310   -0.6600 C   0  0  0  0  0  0  0  0  0  0  0  0
   -0.4720    2.4360   -2.3130 C   0  0  0  0  0  0  0  0  0  0  0  0
    0.6530   -0.2090    0.0040 N   0  0  0  0  0  0  0  0  0  0  0  0
   -1.5250    0.3870   -0.5480 O   0  0  0  0  0  0  0  0  0  0  0  0
    3.3110    3.1420   -2.8590 C   0  0  2  0  0  0  0  0  0  0  0  0
    0.3250   -1.2780    0.9280 C   0  0  0  0  0  0  0  0  0  0  0  0
   -0.3660    0.2280    4.9260 C   0  0  0  0  0  0  0  0  0  0  0  0
    0.0810   -0.7470    2.3280 C   0  0  0  0  0  0  0  0  0  0  0  0
    4.2240    1.9790   -3.0760 N   0  3  0  0  0  0  0  0  0  0  0  0
   -0.6520    0.8080    6.5000 Cl  0  0  0  0  0  0  0  0  0  0  0  0
   -1.4480   -0.0570    4.0910 C   0  0  0  0  0  0  0  0  0  0  0  0
    0.9370    0.0360    4.4670 C   0  0  0  0  0  0  0  0  0  0  0  0
   -1.2260   -0.5400    2.7980 C   0  0  0  0  0  0  0  0  0  0  0  0
    1.1600   -0.4460    3.1750 C   0  0  0  0  0  0  0  0  0  0  0  0
    3.9150    4.0080   -1.7580 C   0  0  0  0  0  0  0  0  0  0  0  0
    5.2860    4.6450   -2.0800 C   0  0  0  0  0  0  0  0  0  0  0  0
    5.7610    5.5940   -0.9890 C   0  0  0  0  0  0  0  0  0  0  0  0
   -1.5510    2.4500   -2.3440 H   0  0  0  0  0  0  0  0  0  0  0  0
    1.6260    0.0050   -0.1620 H   0  0  0  0  0  0  0  0  0  0  0  0
    3.2190    3.7150   -3.7820 H   0  0  0  0  0  0  0  0  0  0  0  0
   -0.5750   -1.7840    0.5790 H   0  0  0  0  0  0  0  0  0  0  0  0
    1.1520   -1.9870    0.9570 H   0  0  0  0  0  0  0  0  0  0  0  0
    4.3060    1.4510   -2.2190 H   0  0  0  0  0  0  0  0  0  0  0  0
    5.1350    2.3140   -3.3540 H   0  0  0  0  0  0  0  0  0  0  0  0
    3.8470    1.3860   -3.8020 H   0  0  0  0  0  0  0  0  0  0  0  0
   -2.4570    0.0960    4.4440 H   0  0  0  0  0  0  0  0  0  0  0  0
    1.7740    0.2600    5.1110 H   0  0  0  0  0  0  0  0  0  0  0  0
   -2.0670   -0.7560    2.1550 H   0  0  0  0  0  0  0  0  0  0  0  0
    2.1710   -0.5880    2.8240 H   0  0  0  0  0  0  0  0  0  0  0  0
    3.2130    4.8140   -1.5440 H   0  0  0  0  0  0  0  0  0  0  0  0
    4.0350    3.3860   -0.8710 H   0  0  0  0  0  0  0  0  0  0  0  0
    6.0220    3.8490   -2.1960 H   0  0  0  0  0  0  0  0  0  0  0  0
    5.2020    5.2010   -3.0140 H   0  0  0  0  0  0  0  0  0  0  0  0
    5.8490    5.0510   -0.0480 H   0  0  0  0  0  0  0  0  0  0  0  0
    5.0420    6.4050   -0.8740 H   0  0  0  0  0  0  0  0  0  0  0  0
    6.7320    6.0060   -1.2630 H   0  0  0  0  0  0  0  0  0  0  0  0
  1  2  1  0  0  0  0
  1  5  1  0  0  0  0
  1  6  2  0  0  0  0
  2  3  2  0  0  0  0
  3  4  1  0  0  0  0
  3  9  1  0  0  0  0
  4  6  1  0  0  0  0
  5  7  1  0  0  0  0
  5  8  2  0  0  0  0
  6 22  1  0  0  0  0
  7 10  1  0  0  0  0
  7 23  1  0  0  0  0
  9 13  1  0  0  0  0
  9 19  1  0  0  0  0
  9 24  1  6  0  0  0
 10 12  1  0  0  0  0
 10 25  1  0  0  0  0
 10 26  1  0  0  0  0
 11 14  1  0  0  0  0
 11 15  2  0  0  0  0
 11 16  1  0  0  0  0
 12 17  2  0  0  0  0
 12 18  1  0  0  0  0
 13 27  1  0  0  0  0
 13 28  1  0  0  0  0
 13 29  1  0  0  0  0
 15 17  1  0  0  0  0
 15 30  1  0  0  0  0
 16 18  2  0  0  0  0
 16 31  1  0  0  0  0
 17 32  1  0  0  0  0
 18 33  1  0  0  0  0
 19 20  1  0  0  0  0
 19 34  1  0  0  0  0
 19 35  1  0  0  0  0
 20 21  1  0  0  0  0
 20 36  1  0  0  0  0
 20 37  1  0  0  0  0
 21 38  1  0  0  0  0
 21 39  1  0  0  0  0
 21 40  1  0  0  0  0
M  CHG  1  13   1
M  END
>  <$CLUSTER>
344

>  <INDEX>
221508

$$$$
