Life Chemicals F2584-0097
 OpenBabel04062209303D

 46 49  0  0  0  0  0  0  0  0999 V2000
   -0.4840    4.3090   -1.7520 S   0  0  0  0  0  0  0  0  0  0  0  0
    0.1200   -1.0510    0.5970 N   0  0  0  0  0  0  0  0  0  0  0  0
   -0.4590   -0.9560    1.8630 C   0  0  0  0  0  0  0  0  0  0  0  0
    0.0320    0.1570   -0.0850 C   0  0  0  0  0  0  0  0  0  0  0  0
   -1.9820    4.2610   -2.4970 N   0  0  0  0  0  0  0  0  0  0  0  0
   -0.6050    1.1080    0.6950 C   0  0  0  0  0  0  0  0  0  0  0  0
   -0.3050    2.6620   -1.0900 C   0  0  0  0  0  0  0  0  0  0  0  0
   -3.1900    4.1640   -1.6890 C   0  0  0  0  0  0  0  0  0  0  0  0
    0.5040    0.3840   -1.3640 C   0  0  0  0  0  0  0  0  0  0  0  0
   -0.9820    0.4890    2.0050 C   0  0  0  0  0  0  0  0  0  0  0  0
   -0.7850    2.3830    0.2000 C   0  0  0  0  0  0  0  0  0  0  0  0
    0.3390    1.6740   -1.8660 C   0  0  0  0  0  0  0  0  0  0  0  0
    0.5150    4.5150   -2.7850 O   0  0  0  0  0  0  0  0  0  0  0  0
   -0.5790    5.2370   -0.6370 O   0  0  0  0  0  0  0  0  0  0  0  0
   -3.9250    2.9690   -1.5990 C   0  0  0  0  0  0  0  0  0  0  0  0
   -0.5490   -1.8220    2.7190 O   0  0  0  0  0  0  0  0  0  0  0  0
   -3.5800    5.2930   -0.9610 C   0  0  0  0  0  0  0  0  0  0  0  0
   -5.0520    2.9270   -0.7700 C   0  0  0  0  0  0  0  0  0  0  0  0
    0.7800   -2.1860   -0.0250 C   0  0  0  0  0  0  0  0  0  0  0  0
   -4.7030    5.2370   -0.1390 C   0  0  0  0  0  0  0  0  0  0  0  0
   -5.4360    4.0570   -0.0440 C   0  0  0  0  0  0  0  0  0  0  0  0
    1.1880   -0.7360   -2.0920 C   0  0  0  0  0  0  0  0  0  0  0  0
   -3.4620    1.9200   -2.3510 O   0  0  0  0  0  0  0  0  0  0  0  0
    0.7230   -2.1060   -1.5580 C   0  0  0  0  0  0  0  0  0  0  0  0
   -5.1200    6.4440    0.6370 C   0  0  0  0  0  0  0  0  0  0  0  0
   -4.1660    0.6880   -2.2510 C   0  0  0  0  0  0  0  0  0  0  0  0
   -2.0480    4.2990   -3.5040 H   0  0  0  0  0  0  0  0  0  0  0  0
   -0.4970    1.0020    2.8360 H   0  0  0  0  0  0  0  0  0  0  0  0
   -2.0620    0.5030    2.1500 H   0  0  0  0  0  0  0  0  0  0  0  0
   -1.2800    3.1430    0.7860 H   0  0  0  0  0  0  0  0  0  0  0  0
    0.7050    1.9180   -2.8520 H   0  0  0  0  0  0  0  0  0  0  0  0
   -3.0110    6.2080   -1.0360 H   0  0  0  0  0  0  0  0  0  0  0  0
   -5.6280    2.0170   -0.6910 H   0  0  0  0  0  0  0  0  0  0  0  0
    0.2870   -3.1030    0.2990 H   0  0  0  0  0  0  0  0  0  0  0  0
    1.8240   -2.2040    0.2890 H   0  0  0  0  0  0  0  0  0  0  0  0
   -6.3060    4.0150    0.5940 H   0  0  0  0  0  0  0  0  0  0  0  0
    2.2650   -0.6460   -1.9530 H   0  0  0  0  0  0  0  0  0  0  0  0
    0.9520   -0.6680   -3.1540 H   0  0  0  0  0  0  0  0  0  0  0  0
   -0.3040   -2.2770   -1.8800 H   0  0  0  0  0  0  0  0  0  0  0  0
    1.3670   -2.8810   -1.9730 H   0  0  0  0  0  0  0  0  0  0  0  0
   -4.4290    7.2630    0.4350 H   0  0  0  0  0  0  0  0  0  0  0  0
   -5.1080    6.2130    1.7020 H   0  0  0  0  0  0  0  0  0  0  0  0
   -6.1270    6.7370    0.3400 H   0  0  0  0  0  0  0  0  0  0  0  0
   -3.6940   -0.0530   -2.8960 H   0  0  0  0  0  0  0  0  0  0  0  0
   -5.2010    0.8340   -2.5620 H   0  0  0  0  0  0  0  0  0  0  0  0
   -4.1420    0.3390   -1.2190 H   0  0  0  0  0  0  0  0  0  0  0  0
  1  5  1  0  0  0  0
  1  7  1  0  0  0  0
  1 13  2  0  0  0  0
  1 14  2  0  0  0  0
  2  3  1  0  0  0  0
  2  4  1  0  0  0  0
  2 19  1  0  0  0  0
  3 10  1  0  0  0  0
  3 16  2  0  0  0  0
  4  6  1  0  0  0  0
  4  9  2  0  0  0  0
  5  8  1  0  0  0  0
  5 27  1  0  0  0  0
  6 10  1  0  0  0  0
  6 11  2  0  0  0  0
  7 11  1  0  0  0  0
  7 12  2  0  0  0  0
  8 15  2  0  0  0  0
  8 17  1  0  0  0  0
  9 12  1  0  0  0  0
  9 22  1  0  0  0  0
 10 28  1  0  0  0  0
 10 29  1  0  0  0  0
 11 30  1  0  0  0  0
 12 31  1  0  0  0  0
 15 18  1  0  0  0  0
 15 23  1  0  0  0  0
 17 20  2  0  0  0  0
 17 32  1  0  0  0  0
 18 21  2  0  0  0  0
 18 33  1  0  0  0  0
 19 24  1  0  0  0  0
 19 34  1  0  0  0  0
 19 35  1  0  0  0  0
 20 21  1  0  0  0  0
 20 25  1  0  0  0  0
 21 36  1  0  0  0  0
 22 24  1  0  0  0  0
 22 37  1  0  0  0  0
 22 38  1  0  0  0  0
 23 26  1  0  0  0  0
 24 39  1  0  0  0  0
 24 40  1  0  0  0  0
 25 41  1  0  0  0  0
 25 42  1  0  0  0  0
 25 43  1  0  0  0  0
 26 44  1  0  0  0  0
 26 45  1  0  0  0  0
 26 46  1  0  0  0  0
M  END
>  <$CLUSTER>
470

>  <INDEX>
309165

$$$$
