Asinex ASN 06601079
 OpenBabel04062209303D

 53 56  0  0  0  0  0  0  0  0999 V2000
    0.5170    1.0120    0.1900 C   0  0  0  0  0  0  0  0  0  0  0  0
   -2.8570   -1.0860    3.6470 N   0  0  0  0  0  0  0  0  0  0  0  0
   -2.2000   -1.7910    2.7600 C   0  0  0  0  0  0  0  0  0  0  0  0
   -2.7750   -3.0130    2.5510 N   0  0  0  0  0  0  0  0  0  0  0  0
   -0.1170   -0.2130   -0.0310 N   0  0  0  0  0  0  0  0  0  0  0  0
    0.0470    1.7710    1.2130 N   0  0  0  0  0  0  0  0  0  0  0  0
   -3.8970   -1.8930    4.0340 C   0  0  0  0  0  0  0  0  0  0  0  0
   -3.8670   -3.0930    3.3670 C   0  0  0  0  0  0  0  0  0  0  0  0
   -0.9690   -1.3550    2.0070 C   0  0  0  0  0  0  0  0  0  0  0  0
    1.8100    1.6340   -0.6860 S   0  0  0  0  0  0  0  0  0  0  0  0
   -1.3190   -0.6320    0.7140 C   0  0  0  0  0  0  0  0  0  0  0  0
    0.3650   -1.1860   -1.0320 C   0  0  0  0  0  0  0  0  0  0  0  0
    0.1690    2.9470    1.9230 C   0  0  0  0  0  0  0  0  0  0  0  0
    1.1460    3.8880    1.5920 C   0  0  0  0  0  0  0  0  0  0  0  0
   -0.3350   -1.0300   -2.3750 C   0  0  0  0  0  0  0  0  0  0  0  0
    1.2670    5.0810    2.3150 C   0  0  0  0  0  0  0  0  0  0  0  0
   -4.9240   -1.6440    4.9720 C   0  0  0  0  0  0  0  0  0  0  0  0
   -0.5680    4.4240    3.7270 C   0  0  0  0  0  0  0  0  0  0  0  0
   -4.8140   -4.1120    3.5630 C   0  0  0  0  0  0  0  0  0  0  0  0
   -0.6870    3.2340    3.0020 C   0  0  0  0  0  0  0  0  0  0  0  0
    0.4130    5.3500    3.3820 C   0  0  0  0  0  0  0  0  0  0  0  0
    2.3230    6.0730    1.9400 C   0  0  0  0  0  0  0  0  0  0  0  0
    0.2770   -0.3200   -3.4110 C   0  0  0  0  0  0  0  0  0  0  0  0
   -1.6130   -1.5690   -2.5660 C   0  0  0  0  0  0  0  0  0  0  0  0
   -5.8820   -2.6430    5.1880 C   0  0  0  0  0  0  0  0  0  0  0  0
   -5.8250   -3.8550    4.4950 C   0  0  0  0  0  0  0  0  0  0  0  0
   -2.2570   -1.4290   -3.7980 C   0  0  0  0  0  0  0  0  0  0  0  0
   -0.3700   -0.1800   -4.6430 C   0  0  0  0  0  0  0  0  0  0  0  0
   -1.6340   -0.7360   -4.8360 C   0  0  0  0  0  0  0  0  0  0  0  0
   -2.4520   -3.7250    1.9120 H   0  0  0  0  0  0  0  0  0  0  0  0
   -0.7150    1.2560    1.6310 H   0  0  0  0  0  0  0  0  0  0  0  0
   -0.3720   -2.2350    1.7680 H   0  0  0  0  0  0  0  0  0  0  0  0
   -0.3890   -0.6840    2.6400 H   0  0  0  0  0  0  0  0  0  0  0  0
   -1.9070   -1.3010    0.0850 H   0  0  0  0  0  0  0  0  0  0  0  0
   -1.9090    0.2520    0.9550 H   0  0  0  0  0  0  0  0  0  0  0  0
    0.1830   -2.1930   -0.6570 H   0  0  0  0  0  0  0  0  0  0  0  0
    1.4350   -1.0390   -1.1760 H   0  0  0  0  0  0  0  0  0  0  0  0
    1.8170    3.6930    0.7680 H   0  0  0  0  0  0  0  0  0  0  0  0
   -4.9690   -0.7080    5.5090 H   0  0  0  0  0  0  0  0  0  0  0  0
   -1.2350    4.6240    4.5520 H   0  0  0  0  0  0  0  0  0  0  0  0
   -4.7640   -5.0450    3.0220 H   0  0  0  0  0  0  0  0  0  0  0  0
   -1.4510    2.5210    3.2760 H   0  0  0  0  0  0  0  0  0  0  0  0
    0.5110    6.2710    3.9380 H   0  0  0  0  0  0  0  0  0  0  0  0
    2.8900    5.6960    1.0890 H   0  0  0  0  0  0  0  0  0  0  0  0
    2.9940    6.2260    2.7850 H   0  0  0  0  0  0  0  0  0  0  0  0
    1.8540    7.0200    1.6720 H   0  0  0  0  0  0  0  0  0  0  0  0
    1.2510    0.1210   -3.2600 H   0  0  0  0  0  0  0  0  0  0  0  0
   -2.1020   -2.0940   -1.7590 H   0  0  0  0  0  0  0  0  0  0  0  0
   -6.6760   -2.4740    5.9000 H   0  0  0  0  0  0  0  0  0  0  0  0
   -6.5760   -4.6080    4.6830 H   0  0  0  0  0  0  0  0  0  0  0  0
   -3.2370   -1.8570   -3.9470 H   0  0  0  0  0  0  0  0  0  0  0  0
    0.1100    0.3600   -5.4460 H   0  0  0  0  0  0  0  0  0  0  0  0
   -2.1310   -0.6300   -5.7890 H   0  0  0  0  0  0  0  0  0  0  0  0
  1  5  1  0  0  0  0
  1  6  1  0  0  0  0
  1 10  2  0  0  0  0
  2  3  2  0  0  0  0
  2  7  1  0  0  0  0
  3  4  1  0  0  0  0
  3  9  1  0  0  0  0
  4  8  1  0  0  0  0
  4 30  1  0  0  0  0
  5 11  1  0  0  0  0
  5 12  1  0  0  0  0
  6 13  1  0  0  0  0
  6 31  1  0  0  0  0
  7  8  2  0  0  0  0
  7 17  1  0  0  0  0
  8 19  1  0  0  0  0
  9 11  1  0  0  0  0
  9 32  1  0  0  0  0
  9 33  1  0  0  0  0
 11 34  1  0  0  0  0
 11 35  1  0  0  0  0
 12 15  1  0  0  0  0
 12 36  1  0  0  0  0
 12 37  1  0  0  0  0
 13 14  2  0  0  0  0
 13 20  1  0  0  0  0
 14 16  1  0  0  0  0
 14 38  1  0  0  0  0
 15 23  1  0  0  0  0
 15 24  2  0  0  0  0
 16 21  2  0  0  0  0
 16 22  1  0  0  0  0
 17 25  2  0  0  0  0
 17 39  1  0  0  0  0
 18 20  2  0  0  0  0
 18 21  1  0  0  0  0
 18 40  1  0  0  0  0
 19 26  2  0  0  0  0
 19 41  1  0  0  0  0
 20 42  1  0  0  0  0
 21 43  1  0  0  0  0
 22 44  1  0  0  0  0
 22 45  1  0  0  0  0
 22 46  1  0  0  0  0
 23 28  2  0  0  0  0
 23 47  1  0  0  0  0
 24 27  1  0  0  0  0
 24 48  1  0  0  0  0
 25 26  1  0  0  0  0
 25 49  1  0  0  0  0
 26 50  1  0  0  0  0
 27 29  2  0  0  0  0
 27 51  1  0  0  0  0
 28 29  1  0  0  0  0
 28 52  1  0  0  0  0
 29 53  1  0  0  0  0
M  END
>  <$CLUSTER>
257

>  <INDEX>
162964

$$$$
