Cerep CER0116166
 OpenBabel04062209303D

 39 42  0  0  0  0  0  0  0  0999 V2000
    0.6950    0.9520    0.0330 C   0  0  0  0  0  0  0  0  0  0  0  0
   -0.7070    0.7670   -0.0510 C   0  0  0  0  0  0  0  0  0  0  0  0
    1.7460   -0.0270    0.1580 C   0  0  0  0  0  0  0  0  0  0  0  0
   -1.4310   -0.4970   -0.1000 C   0  0  0  0  0  0  0  0  0  0  0  0
    1.0100    2.2550    0.0210 N   0  0  0  0  0  0  0  0  0  0  0  0
    1.5330   -1.3360    0.4900 O   0  0  0  0  0  0  0  0  0  0  0  0
    3.0230    0.2590    0.0000 N   0  0  0  0  0  0  0  0  0  0  0  0
   -0.9200   -1.5240   -0.8730 N   0  0  0  0  0  0  0  0  0  0  0  0
    2.8030   -1.8210    0.5020 C   0  0  0  0  0  0  0  0  0  0  0  0
    3.7130   -0.9190    0.2190 N   0  0  0  0  0  0  0  0  0  0  0  0
   -0.1920    2.9340   -0.0450 O   0  0  0  0  0  0  0  0  0  0  0  0
   -1.2200    2.0440   -0.0850 C   0  0  0  0  0  0  0  0  0  0  0  0
   -2.6290   -0.7700    0.5310 C   0  0  0  0  0  0  0  0  0  0  0  0
   -1.7230   -2.5620   -0.8000 C   0  0  0  0  0  0  0  0  0  0  0  0
   -3.1240   -2.3740    0.1710 S   0  0  0  0  0  0  0  0  0  0  0  0
    3.0910   -3.4980    0.8750 S   0  0  0  0  0  0  0  0  0  0  0  0
    4.8920   -3.5840    0.7570 C   0  0  0  0  0  0  0  0  0  0  0  0
    6.8260   -1.4910    4.0110 C   0  0  0  0  0  0  0  0  0  0  0  0
    5.5880   -2.8490    1.8990 C   0  0  0  0  0  0  0  0  0  0  0  0
    7.4230   -0.9230    5.0590 F   0  0  0  0  0  0  0  0  0  0  0  0
    6.4840   -0.8060    2.8470 C   0  0  0  0  0  0  0  0  0  0  0  0
    6.5440   -2.8530    4.1260 C   0  0  0  0  0  0  0  0  0  0  0  0
    5.8610   -1.4800    1.7940 C   0  0  0  0  0  0  0  0  0  0  0  0
    5.9220   -3.5300    3.0760 C   0  0  0  0  0  0  0  0  0  0  0  0
   -2.5770    2.6180   -0.1720 C   0  0  0  0  0  0  0  0  0  0  0  0
   -1.4740   -3.8330   -1.4950 C   0  0  0  0  0  0  0  0  0  0  0  0
   -3.1730   -0.0780    1.1570 H   0  0  0  0  0  0  0  0  0  0  0  0
    5.2020   -3.1370   -0.1870 H   0  0  0  0  0  0  0  0  0  0  0  0
    5.1940   -4.6310    0.7800 H   0  0  0  0  0  0  0  0  0  0  0  0
    6.7010    0.2480    2.7590 H   0  0  0  0  0  0  0  0  0  0  0  0
    6.8080   -3.3840    5.0290 H   0  0  0  0  0  0  0  0  0  0  0  0
    5.5890   -0.9440    0.8970 H   0  0  0  0  0  0  0  0  0  0  0  0
    5.6980   -4.5820    3.1720 H   0  0  0  0  0  0  0  0  0  0  0  0
   -3.3110    1.8130   -0.1970 H   0  0  0  0  0  0  0  0  0  0  0  0
   -2.6610    3.2150   -1.0800 H   0  0  0  0  0  0  0  0  0  0  0  0
   -2.7610    3.2500    0.6970 H   0  0  0  0  0  0  0  0  0  0  0  0
   -0.5430   -3.7630   -2.0580 H   0  0  0  0  0  0  0  0  0  0  0  0
   -2.2970   -4.0410   -2.1790 H   0  0  0  0  0  0  0  0  0  0  0  0
   -1.3970   -4.6380   -0.7640 H   0  0  0  0  0  0  0  0  0  0  0  0
  1  2  1  0  0  0  0
  1  3  1  0  0  0  0
  1  5  2  0  0  0  0
  2  4  1  0  0  0  0
  2 12  2  0  0  0  0
  3  6  1  0  0  0  0
  3  7  2  0  0  0  0
  4  8  1  0  0  0  0
  4 13  2  0  0  0  0
  5 11  1  0  0  0  0
  6  9  1  0  0  0  0
  7 10  1  0  0  0  0
  8 14  2  0  0  0  0
  9 10  2  0  0  0  0
  9 16  1  0  0  0  0
 11 12  1  0  0  0  0
 12 25  1  0  0  0  0
 13 15  1  0  0  0  0
 13 27  1  0  0  0  0
 14 15  1  0  0  0  0
 14 26  1  0  0  0  0
 16 17  1  0  0  0  0
 17 19  1  0  0  0  0
 17 28  1  0  0  0  0
 17 29  1  0  0  0  0
 18 20  1  0  0  0  0
 18 21  2  0  0  0  0
 18 22  1  0  0  0  0
 19 23  2  0  0  0  0
 19 24  1  0  0  0  0
 21 23  1  0  0  0  0
 21 30  1  0  0  0  0
 22 24  2  0  0  0  0
 22 31  1  0  0  0  0
 23 32  1  0  0  0  0
 24 33  1  0  0  0  0
 25 34  1  0  0  0  0
 25 35  1  0  0  0  0
 25 36  1  0  0  0  0
 26 37  1  0  0  0  0
 26 38  1  0  0  0  0
 26 39  1  0  0  0  0
M  END
>  <$CLUSTER>
296

>  <INDEX>
188204

$$$$
