Tripos 1554-07659
 OpenBabel04062209303D

 44 45  0  0  0  0  0  0  0  0999 V2000
    0.8590    1.9170   -0.5700 S   0  0  0  0  0  0  0  0  0  0  0  0
    0.3520    0.4420   -1.2820 N   0  0  0  0  0  0  0  0  0  0  0  0
   -0.7100    2.5850   -0.0630 C   0  0  0  0  0  0  0  0  0  0  0  0
    1.3590    2.7750   -1.6280 O   0  0  0  0  0  0  0  0  0  0  0  0
    1.6480    1.6790    0.6210 O   0  0  0  0  0  0  0  0  0  0  0  0
   -5.2630    5.0600    0.6470 C   0  0  0  0  0  0  0  0  0  0  0  0
   -4.3480    4.2480    1.3050 N   0  0  0  0  0  0  0  0  0  0  0  0
   -5.2070    5.4820   -0.5040 O   0  0  0  0  0  0  0  0  0  0  0  0
   -1.4570    3.3980   -0.9310 C   0  0  0  0  0  0  0  0  0  0  0  0
   -1.1730    2.3640    1.2480 C   0  0  0  0  0  0  0  0  0  0  0  0
   -0.0880   -0.6140   -0.4100 C   0  0  0  0  0  0  0  0  0  0  0  0
   -1.5670   -3.5990    2.0890 O   0  0  0  0  0  0  0  0  0  0  0  0
   -3.1280    3.7130    0.7890 C   0  0  0  0  0  0  0  0  0  0  0  0
   -0.9920   -2.6270    1.2970 C   0  0  0  0  0  0  0  0  0  0  0  0
   -2.3830    2.9200    1.6650 C   0  0  0  0  0  0  0  0  0  0  0  0
   -2.6670    3.9520   -0.5060 C   0  0  0  0  0  0  0  0  0  0  0  0
   -1.4380   -0.9750   -0.4100 C   0  0  0  0  0  0  0  0  0  0  0  0
    0.8100   -1.2600    0.4440 C   0  0  0  0  0  0  0  0  0  0  0  0
    0.3550   -2.2670    1.2960 C   0  0  0  0  0  0  0  0  0  0  0  0
   -1.8880   -1.9830    0.4450 C   0  0  0  0  0  0  0  0  0  0  0  0
   -0.7320   -4.4230    2.9110 C   0  0  0  0  0  0  0  0  0  0  0  0
   -6.4260    5.4060    1.5420 C   0  0  0  0  0  0  0  0  0  0  0  0
   -0.5230   -3.7620    4.2700 C   0  0  0  0  0  0  0  0  0  0  0  0
   -1.4670   -5.7500    3.0850 C   0  0  0  0  0  0  0  0  0  0  0  0
    0.3620    0.3180   -2.2840 H   0  0  0  0  0  0  0  0  0  0  0  0
   -4.5710    4.0080    2.2600 H   0  0  0  0  0  0  0  0  0  0  0  0
   -1.0950    3.5950   -1.9290 H   0  0  0  0  0  0  0  0  0  0  0  0
   -0.5910    1.7640    1.9320 H   0  0  0  0  0  0  0  0  0  0  0  0
   -2.7440    2.7370    2.6660 H   0  0  0  0  0  0  0  0  0  0  0  0
   -3.2460    4.5660   -1.1800 H   0  0  0  0  0  0  0  0  0  0  0  0
   -2.1320   -0.4750   -1.0700 H   0  0  0  0  0  0  0  0  0  0  0  0
    1.8530   -0.9810    0.4450 H   0  0  0  0  0  0  0  0  0  0  0  0
    1.0470   -2.7680    1.9560 H   0  0  0  0  0  0  0  0  0  0  0  0
   -2.9310   -2.2640    0.4460 H   0  0  0  0  0  0  0  0  0  0  0  0
    0.2470   -4.5700    2.4560 H   0  0  0  0  0  0  0  0  0  0  0  0
   -6.2870    4.9370    2.5160 H   0  0  0  0  0  0  0  0  0  0  0  0
   -7.3510    5.0440    1.0930 H   0  0  0  0  0  0  0  0  0  0  0  0
   -6.4810    6.4880    1.6640 H   0  0  0  0  0  0  0  0  0  0  0  0
   -1.4890   -3.6030    4.7490 H   0  0  0  0  0  0  0  0  0  0  0  0
   -0.0220   -2.8040    4.1350 H   0  0  0  0  0  0  0  0  0  0  0  0
    0.0910   -4.4080    4.8970 H   0  0  0  0  0  0  0  0  0  0  0  0
   -2.4400   -5.5690    3.5410 H   0  0  0  0  0  0  0  0  0  0  0  0
   -0.8810   -6.4080    3.7270 H   0  0  0  0  0  0  0  0  0  0  0  0
   -1.6040   -6.2200    2.1110 H   0  0  0  0  0  0  0  0  0  0  0  0
  1  2  1  0  0  0  0
  1  3  1  0  0  0  0
  1  4  2  0  0  0  0
  1  5  2  0  0  0  0
  2 11  1  0  0  0  0
  2 25  1  0  0  0  0
  3  9  1  0  0  0  0
  3 10  2  0  0  0  0
  6  7  1  0  0  0  0
  6  8  2  0  0  0  0
  6 22  1  0  0  0  0
  7 13  1  0  0  0  0
  7 26  1  0  0  0  0
  9 16  2  0  0  0  0
  9 27  1  0  0  0  0
 10 15  1  0  0  0  0
 10 28  1  0  0  0  0
 11 17  1  0  0  0  0
 11 18  2  0  0  0  0
 12 14  1  0  0  0  0
 12 21  1  0  0  0  0
 13 15  2  0  0  0  0
 13 16  1  0  0  0  0
 14 19  2  0  0  0  0
 14 20  1  0  0  0  0
 15 29  1  0  0  0  0
 16 30  1  0  0  0  0
 17 20  2  0  0  0  0
 17 31  1  0  0  0  0
 18 19  1  0  0  0  0
 18 32  1  0  0  0  0
 19 33  1  0  0  0  0
 20 34  1  0  0  0  0
 21 23  1  0  0  0  0
 21 24  1  0  0  0  0
 21 35  1  0  0  0  0
 22 36  1  0  0  0  0
 22 37  1  0  0  0  0
 22 38  1  0  0  0  0
 23 39  1  0  0  0  0
 23 40  1  0  0  0  0
 23 41  1  0  0  0  0
 24 42  1  0  0  0  0
 24 43  1  0  0  0  0
 24 44  1  0  0  0  0
M  END
>  <$CLUSTER>
717

>  <INDEX>
467588

$$$$
