Princeton Biomolecular OSSK_115610
 OpenBabel04062209303D

 40 41  0  0  1  0  0  0  0  0999 V2000
    0.5050    2.0520   -0.7350 S   0  0  0  0  0  0  0  0  0  0  0  0
    0.6050    0.4240   -1.2640 N   0  0  0  0  0  0  0  0  0  0  0  0
    1.6930    2.0340    0.5890 C   0  0  0  0  0  0  0  0  0  0  0  0
    1.0520    2.8960   -1.7810 O   0  0  0  0  0  0  0  0  0  0  0  0
   -0.7960    2.3370   -0.1630 O   0  0  0  0  0  0  0  0  0  0  0  0
    3.5180    2.0990    2.7120 C   0  0  0  0  0  0  0  0  0  0  0  0
    1.2650    1.7540    1.9030 C   0  0  0  0  0  0  0  0  0  0  0  0
    3.0340    2.3720    0.3590 C   0  0  0  0  0  0  0  0  0  0  0  0
    3.9440    2.3950    1.4160 C   0  0  0  0  0  0  0  0  0  0  0  0
    2.1810    1.7790    2.9560 C   0  0  0  0  0  0  0  0  0  0  0  0
    0.0220   -0.5940   -0.4320 C   0  0  0  0  0  0  0  0  0  0  0  0
   -1.0630   -2.5590    1.2270 C   0  0  0  0  0  0  0  0  0  0  0  0
    4.5030    2.1290    3.8940 C   0  0  2  0  0  0  0  0  0  0  0  0
   -1.3610   -0.6700   -0.2530 C   0  0  0  0  0  0  0  0  0  0  0  0
    0.8630   -1.5010    0.2200 C   0  0  0  0  0  0  0  0  0  0  0  0
   -1.9010   -1.6540    0.5760 C   0  0  0  0  0  0  0  0  0  0  0  0
    0.3180   -2.4830    1.0480 C   0  0  0  0  0  0  0  0  0  0  0  0
   -1.6080   -3.5090    2.0320 O   0  0  0  0  0  0  0  0  0  0  0  0
    5.0940    3.5270    4.1040 C   0  0  0  0  0  0  0  0  0  0  0  0
    5.6140    1.0880    3.7250 C   0  0  0  0  0  0  0  0  0  0  0  0
    4.0800    4.6030    4.4420 C   0  0  0  0  0  0  0  0  0  0  0  0
    1.0600    0.1870   -2.1340 H   0  0  0  0  0  0  0  0  0  0  0  0
    0.2280    1.5200    2.0950 H   0  0  0  0  0  0  0  0  0  0  0  0
    3.3640    2.6150   -0.6400 H   0  0  0  0  0  0  0  0  0  0  0  0
    4.9790    2.6420    1.2320 H   0  0  0  0  0  0  0  0  0  0  0  0
    1.8550    1.5510    3.9600 H   0  0  0  0  0  0  0  0  0  0  0  0
    3.9350    1.8720    4.7880 H   0  0  0  0  0  0  0  0  0  0  0  0
   -2.0110    0.0310   -0.7550 H   0  0  0  0  0  0  0  0  0  0  0  0
    1.9330   -1.4420    0.0830 H   0  0  0  0  0  0  0  0  0  0  0  0
   -2.9700   -1.7150    0.7140 H   0  0  0  0  0  0  0  0  0  0  0  0
    0.9660   -3.1850    1.5510 H   0  0  0  0  0  0  0  0  0  0  0  0
   -0.9760   -4.0990    2.4490 H   0  0  0  0  0  0  0  0  0  0  0  0
    5.6060    3.8200    3.1870 H   0  0  0  0  0  0  0  0  0  0  0  0
    5.8140    3.4710    4.9200 H   0  0  0  0  0  0  0  0  0  0  0  0
    6.1990    1.3220    2.8360 H   0  0  0  0  0  0  0  0  0  0  0  0
    5.1710    0.0980    3.6180 H   0  0  0  0  0  0  0  0  0  0  0  0
    6.2630    1.1030    4.6010 H   0  0  0  0  0  0  0  0  0  0  0  0
    3.3480    4.6770    3.6380 H   0  0  0  0  0  0  0  0  0  0  0  0
    4.5900    5.5590    4.5580 H   0  0  0  0  0  0  0  0  0  0  0  0
    3.5740    4.3460    5.3720 H   0  0  0  0  0  0  0  0  0  0  0  0
  1  2  1  0  0  0  0
  1  3  1  0  0  0  0
  1  4  2  0  0  0  0
  1  5  2  0  0  0  0
  2 11  1  0  0  0  0
  2 22  1  0  0  0  0
  3  7  1  0  0  0  0
  3  8  2  0  0  0  0
  6  9  2  0  0  0  0
  6 10  1  0  0  0  0
  6 13  1  0  0  0  0
  7 10  2  0  0  0  0
  7 23  1  0  0  0  0
  8  9  1  0  0  0  0
  8 24  1  0  0  0  0
  9 25  1  0  0  0  0
 10 26  1  0  0  0  0
 11 14  2  0  0  0  0
 11 15  1  0  0  0  0
 12 16  2  0  0  0  0
 12 17  1  0  0  0  0
 12 18  1  0  0  0  0
 13 19  1  0  0  0  0
 13 20  1  0  0  0  0
 13 27  1  1  0  0  0
 14 16  1  0  0  0  0
 14 28  1  0  0  0  0
 15 17  2  0  0  0  0
 15 29  1  0  0  0  0
 16 30  1  0  0  0  0
 17 31  1  0  0  0  0
 18 32  1  0  0  0  0
 19 21  1  0  0  0  0
 19 33  1  0  0  0  0
 19 34  1  0  0  0  0
 20 35  1  0  0  0  0
 20 36  1  0  0  0  0
 20 37  1  0  0  0  0
 21 38  1  0  0  0  0
 21 39  1  0  0  0  0
 21 40  1  0  0  0  0
M  END
>  <$CLUSTER>
722

>  <INDEX>
577938

$$$$
