Pyxis Discovery PYX 00000172
 OpenBabel04062209303D

 52 54  0  0  0  0  0  0  0  0999 V2000
   -0.8890    0.9430   -0.0830 C   0  0  2  0  0  0  0  0  0  0  0  0
    2.2710   -3.2560   -0.8640 C   0  0  0  0  0  0  0  0  0  0  0  0
    1.2230   -1.0820   -0.1890 N   0  3  1  0  0  0  0  0  0  0  0  0
    0.5820    1.2790    0.1990 C   0  0  0  0  0  0  0  0  0  0  0  0
   -0.9940   -0.3040   -0.9720 C   0  0  0  0  0  0  0  0  0  0  0  0
    3.0290   -4.3190   -0.4750 N   0  0  0  0  0  0  0  0  0  0  0  0
   -1.5980    2.1350   -0.7280 C   0  0  0  0  0  0  0  0  0  0  0  0
    2.0660   -2.2480    0.2510 C   0  0  0  0  0  0  0  0  0  0  0  0
    1.7950   -3.1080   -1.9870 O   0  0  0  0  0  0  0  0  0  0  0  0
   -0.2150   -1.4860   -0.4050 C   0  0  0  0  0  0  0  0  0  0  0  0
    1.3520    0.0860    0.7580 C   0  0  0  0  0  0  0  0  0  0  0  0
   -1.1550    2.6240   -1.9960 C   0  0  0  0  0  0  0  0  0  0  0  0
   -2.6840    2.7900   -0.1440 C   0  0  0  0  0  0  0  0  0  0  0  0
   -1.5270    0.6770    1.1690 O   0  0  0  0  0  0  0  0  0  0  0  0
   -2.8620    4.3330   -1.9980 C   0  0  0  0  0  0  0  0  0  0  0  0
   -3.3120    3.8750   -0.7630 C   0  0  0  0  0  0  0  0  0  0  0  0
   -1.7830    3.7070   -2.6150 C   0  0  0  0  0  0  0  0  0  0  0  0
   -3.5130    5.3700   -2.5230 F   0  0  0  0  0  0  0  0  0  0  0  0
    3.3870   -5.4340   -1.3530 C   0  0  0  0  0  0  0  0  0  0  0  0
    4.6650   -5.1120   -2.1220 C   0  0  0  0  0  0  0  0  0  0  0  0
    3.5390   -6.7250   -0.5570 C   0  0  0  0  0  0  0  0  0  0  0  0
    5.1070   -6.2730   -3.0070 C   0  0  0  0  0  0  0  0  0  0  0  0
    3.9740   -7.8910   -1.4330 C   0  0  0  0  0  0  0  0  0  0  0  0
    5.2490   -7.5630   -2.2050 C   0  0  0  0  0  0  0  0  0  0  0  0
    1.5760   -0.7730   -1.0830 H   0  0  0  0  0  0  0  0  0  0  0  0
    0.6230    2.0930    0.9230 H   0  0  0  0  0  0  0  0  0  0  0  0
    1.0540    1.5960   -0.7310 H   0  0  0  0  0  0  0  0  0  0  0  0
   -0.5990   -0.0650   -1.9590 H   0  0  0  0  0  0  0  0  0  0  0  0
   -2.0440   -0.5850   -1.0590 H   0  0  0  0  0  0  0  0  0  0  0  0
    3.3640   -4.3390    0.4770 H   0  0  0  0  0  0  0  0  0  0  0  0
    3.0390   -1.8770    0.5730 H   0  0  0  0  0  0  0  0  0  0  0  0
    1.5720   -2.7440    1.0870 H   0  0  0  0  0  0  0  0  0  0  0  0
   -0.6540   -1.7890    0.5460 H   0  0  0  0  0  0  0  0  0  0  0  0
   -0.2570   -2.3190   -1.1060 H   0  0  0  0  0  0  0  0  0  0  0  0
    2.4040    0.3510    0.8680 H   0  0  0  0  0  0  0  0  0  0  0  0
    0.9430   -0.1870    1.7310 H   0  0  0  0  0  0  0  0  0  0  0  0
   -0.3190    2.1470   -2.4850 H   0  0  0  0  0  0  0  0  0  0  0  0
   -3.0490    2.4490    0.8130 H   0  0  0  0  0  0  0  0  0  0  0  0
   -1.0790   -0.0710    1.5700 H   0  0  0  0  0  0  0  0  0  0  0  0
   -4.1490    4.3590   -0.2810 H   0  0  0  0  0  0  0  0  0  0  0  0
   -1.4310    4.0590   -3.5730 H   0  0  0  0  0  0  0  0  0  0  0  0
    2.5810   -5.5800   -2.0720 H   0  0  0  0  0  0  0  0  0  0  0  0
    5.4590   -4.8910   -1.4090 H   0  0  0  0  0  0  0  0  0  0  0  0
    4.4870   -4.2390   -2.7500 H   0  0  0  0  0  0  0  0  0  0  0  0
    2.5810   -6.9690   -0.0970 H   0  0  0  0  0  0  0  0  0  0  0  0
    4.2870   -6.5720    0.2210 H   0  0  0  0  0  0  0  0  0  0  0  0
    6.0690   -6.0290   -3.4580 H   0  0  0  0  0  0  0  0  0  0  0  0
    4.3650   -6.4230   -3.7910 H   0  0  0  0  0  0  0  0  0  0  0  0
    3.1780   -8.1170   -2.1430 H   0  0  0  0  0  0  0  0  0  0  0  0
    4.1560   -8.7600   -0.8010 H   0  0  0  0  0  0  0  0  0  0  0  0
    6.0710   -7.4510   -1.4980 H   0  0  0  0  0  0  0  0  0  0  0  0
    5.4680   -8.3820   -2.8900 H   0  0  0  0  0  0  0  0  0  0  0  0
  1  4  1  0  0  0  0
  1  5  1  0  0  0  0
  1  7  1  0  0  0  0
  1 14  1  1  0  0  0
  2  6  1  0  0  0  0
  2  8  1  0  0  0  0
  2  9  2  0  0  0  0
  3  8  1  0  0  0  0
  3 10  1  0  0  0  0
  3 11  1  0  0  0  0
  3 25  1  6  0  0  0
  4 11  1  0  0  0  0
  4 26  1  0  0  0  0
  4 27  1  0  0  0  0
  5 10  1  0  0  0  0
  5 28  1  0  0  0  0
  5 29  1  0  0  0  0
  6 19  1  0  0  0  0
  6 30  1  0  0  0  0
  7 12  1  0  0  0  0
  7 13  2  0  0  0  0
  8 31  1  0  0  0  0
  8 32  1  0  0  0  0
 10 33  1  0  0  0  0
 10 34  1  0  0  0  0
 11 35  1  0  0  0  0
 11 36  1  0  0  0  0
 12 17  2  0  0  0  0
 12 37  1  0  0  0  0
 13 16  1  0  0  0  0
 13 38  1  0  0  0  0
 14 39  1  0  0  0  0
 15 16  2  0  0  0  0
 15 17  1  0  0  0  0
 15 18  1  0  0  0  0
 16 40  1  0  0  0  0
 17 41  1  0  0  0  0
 19 20  1  0  0  0  0
 19 21  1  0  0  0  0
 19 42  1  0  0  0  0
 20 22  1  0  0  0  0
 20 43  1  0  0  0  0
 20 44  1  0  0  0  0
 21 23  1  0  0  0  0
 21 45  1  0  0  0  0
 21 46  1  0  0  0  0
 22 24  1  0  0  0  0
 22 47  1  0  0  0  0
 22 48  1  0  0  0  0
 23 24  1  0  0  0  0
 23 49  1  0  0  0  0
 23 50  1  0  0  0  0
 24 51  1  0  0  0  0
 24 52  1  0  0  0  0
M  CHG  1   3   1
M  END
>  <$CLUSTER>
935

>  <INDEX>
611698

$$$$
