Chem T&I IVK/0000448
 OpenBabel04062209303D

 50 52  0  0  0  0  0  0  0  0999 V2000
    2.1880    0.0380   -1.5830 S   0  0  0  0  0  0  0  0  0  0  0  0
    0.9490   -0.0300   -0.4530 N   0  0  0  0  0  0  0  0  0  0  0  0
   -1.6750    0.0220    0.9530 N   0  0  0  0  0  0  0  0  0  0  0  0
    3.2190   -0.4060    0.0150 C   0  0  0  0  0  0  0  0  0  0  0  0
    2.3420   -1.1150   -2.3780 O   0  0  0  0  0  0  0  0  0  0  0  0
    2.6500    1.3320   -1.8950 O   0  0  0  0  0  0  0  0  0  0  0  0
   -0.0470   -1.1260   -0.5730 C   0  0  0  0  0  0  0  0  0  0  0  0
    0.2490    1.2350   -0.1070 C   0  0  0  0  0  0  0  0  0  0  0  0
   -2.9890    0.1650    1.0660 C   0  0  0  0  0  0  0  0  0  0  0  0
   -0.6850    1.0970    1.1110 C   0  0  0  0  0  0  0  0  0  0  0  0
   -0.9780   -1.2360    0.6500 C   0  0  0  0  0  0  0  0  0  0  0  0
   -5.8130    0.4720    1.3090 C   0  0  0  0  0  0  0  0  0  0  0  0
   -7.2710    0.6680    1.4430 C   0  0  0  0  0  0  0  0  0  0  0  0
   -7.7170    1.7830    1.7020 O   0  0  0  0  0  0  0  0  0  0  0  0
   -3.5850    1.4100    1.3600 C   0  0  0  0  0  0  0  0  0  0  0  0
   -3.8770   -0.9170    0.9000 C   0  0  0  0  0  0  0  0  0  0  0  0
   -5.2650   -0.7690    1.0190 C   0  0  0  0  0  0  0  0  0  0  0  0
   -4.9720    1.5640    1.4800 C   0  0  0  0  0  0  0  0  0  0  0  0
    3.9670    0.6170    0.6850 C   0  0  0  0  0  0  0  0  0  0  0  0
    3.7150   -1.7460    0.1890 C   0  0  0  0  0  0  0  0  0  0  0  0
    4.6070   -2.0540    1.2170 C   0  0  0  0  0  0  0  0  0  0  0  0
    4.8590    0.3020    1.7120 C   0  0  0  0  0  0  0  0  0  0  0  0
    5.1770   -1.0310    1.9770 C   0  0  0  0  0  0  0  0  0  0  0  0
   -8.1910   -0.5100    1.2600 C   0  0  0  0  0  0  0  0  0  0  0  0
    6.2080   -1.3650    3.0360 C   0  0  0  0  0  0  0  0  0  0  0  0
    5.5390   -1.5770    4.3850 C   0  0  0  0  0  0  0  0  0  0  0  0
    0.4880   -2.0690   -0.6880 H   0  0  0  0  0  0  0  0  0  0  0  0
   -0.6570   -0.9440   -1.4580 H   0  0  0  0  0  0  0  0  0  0  0  0
   -0.3450    1.5490   -0.9660 H   0  0  0  0  0  0  0  0  0  0  0  0
    0.9970    1.9960    0.1140 H   0  0  0  0  0  0  0  0  0  0  0  0
   -0.0790    0.8850    1.9920 H   0  0  0  0  0  0  0  0  0  0  0  0
   -1.2140    2.0390    1.2520 H   0  0  0  0  0  0  0  0  0  0  0  0
   -1.7220   -2.0070    0.4520 H   0  0  0  0  0  0  0  0  0  0  0  0
   -0.3810   -1.5210    1.5170 H   0  0  0  0  0  0  0  0  0  0  0  0
   -2.9500    2.2730    1.4970 H   0  0  0  0  0  0  0  0  0  0  0  0
   -3.4740   -1.8930    0.6730 H   0  0  0  0  0  0  0  0  0  0  0  0
   -5.9110   -1.6240    0.8840 H   0  0  0  0  0  0  0  0  0  0  0  0
   -5.3890    2.5340    1.7060 H   0  0  0  0  0  0  0  0  0  0  0  0
    3.8390    1.6480    0.3910 H   0  0  0  0  0  0  0  0  0  0  0  0
    3.3920   -2.5250   -0.4860 H   0  0  0  0  0  0  0  0  0  0  0  0
    4.8560   -3.0840    1.4250 H   0  0  0  0  0  0  0  0  0  0  0  0
    5.3030    1.0900    2.3020 H   0  0  0  0  0  0  0  0  0  0  0  0
   -7.6020   -1.4000    1.0380 H   0  0  0  0  0  0  0  0  0  0  0  0
   -8.8750   -0.3120    0.4350 H   0  0  0  0  0  0  0  0  0  0  0  0
   -8.7620   -0.6710    2.1750 H   0  0  0  0  0  0  0  0  0  0  0  0
    6.9200   -0.5440    3.1140 H   0  0  0  0  0  0  0  0  0  0  0  0
    6.7340   -2.2760    2.7500 H   0  0  0  0  0  0  0  0  0  0  0  0
    5.0120   -0.6680    4.6760 H   0  0  0  0  0  0  0  0  0  0  0  0
    6.2960   -1.8130    5.1330 H   0  0  0  0  0  0  0  0  0  0  0  0
    4.8300   -2.4020    4.3130 H   0  0  0  0  0  0  0  0  0  0  0  0
  1  2  1  0  0  0  0
  1  4  1  0  0  0  0
  1  5  2  0  0  0  0
  1  6  2  0  0  0  0
  2  7  1  0  0  0  0
  2  8  1  0  0  0  0
  3  9  1  0  0  0  0
  3 10  1  0  0  0  0
  3 11  1  0  0  0  0
  4 19  1  0  0  0  0
  4 20  2  0  0  0  0
  7 11  1  0  0  0  0
  7 27  1  0  0  0  0
  7 28  1  0  0  0  0
  8 10  1  0  0  0  0
  8 29  1  0  0  0  0
  8 30  1  0  0  0  0
  9 15  1  0  0  0  0
  9 16  2  0  0  0  0
 10 31  1  0  0  0  0
 10 32  1  0  0  0  0
 11 33  1  0  0  0  0
 11 34  1  0  0  0  0
 12 13  1  0  0  0  0
 12 17  2  0  0  0  0
 12 18  1  0  0  0  0
 13 14  2  0  0  0  0
 13 24  1  0  0  0  0
 15 18  2  0  0  0  0
 15 35  1  0  0  0  0
 16 17  1  0  0  0  0
 16 36  1  0  0  0  0
 17 37  1  0  0  0  0
 18 38  1  0  0  0  0
 19 22  2  0  0  0  0
 19 39  1  0  0  0  0
 20 21  1  0  0  0  0
 20 40  1  0  0  0  0
 21 23  2  0  0  0  0
 21 41  1  0  0  0  0
 22 23  1  0  0  0  0
 22 42  1  0  0  0  0
 23 25  1  0  0  0  0
 24 43  1  0  0  0  0
 24 44  1  0  0  0  0
 24 45  1  0  0  0  0
 25 26  1  0  0  0  0
 25 46  1  0  0  0  0
 25 47  1  0  0  0  0
 26 48  1  0  0  0  0
 26 49  1  0  0  0  0
 26 50  1  0  0  0  0
M  END
>  <$CLUSTER>
726

>  <INDEX>
553125

$$$$
