Life Chemicals F0577-0037
 OpenBabel04062209303D

 53 56  0  0  1  0  0  0  0  0999 V2000
    0.0590    0.8830    0.7700 C   0  0  0  0  0  0  0  0  0  0  0  0
    0.2380    0.5110   -0.5240 C   0  0  0  0  0  0  0  0  0  0  0  0
   -0.4050    0.0110    1.7400 N   0  0  0  0  0  0  0  0  0  0  0  0
    0.0100   -0.9090   -0.9040 C   0  0  0  0  0  0  0  0  0  0  0  0
   -0.4490   -1.7020    0.1250 N   0  0  0  0  0  0  0  0  0  0  0  0
    1.1640    2.8150   -1.0330 C   0  0  0  0  0  0  0  0  0  0  0  0
    0.6970    1.4840   -1.6090 C   0  0  2  0  0  0  0  0  0  0  0  0
    0.3790    2.1940    1.1080 N   0  0  0  0  0  0  0  0  0  0  0  0
    0.9550    3.1190    0.2620 C   0  0  0  0  0  0  0  0  0  0  0  0
   -0.6350   -1.2070    1.3870 C   0  0  0  0  0  0  0  0  0  0  0  0
    1.9140    3.7660   -1.9010 C   0  0  0  0  0  0  0  0  0  0  0  0
   -0.4530    1.7340   -2.5980 C   0  0  0  0  0  0  0  0  0  0  0  0
    0.2270   -1.3290   -2.0360 O   0  0  0  0  0  0  0  0  0  0  0  0
   -2.5060    2.1430   -4.4910 C   0  0  0  0  0  0  0  0  0  0  0  0
   -1.2060   -2.4130    2.4960 S   0  0  0  0  0  0  0  0  0  0  0  0
    2.1940    3.4710   -3.0610 O   0  0  0  0  0  0  0  0  0  0  0  0
   -0.2830    1.3640   -3.9590 C   0  0  0  0  0  0  0  0  0  0  0  0
   -1.6750    2.3040   -2.2290 C   0  0  0  0  0  0  0  0  0  0  0  0
   -1.3030    1.5700   -4.8900 C   0  0  0  0  0  0  0  0  0  0  0  0
   -2.6930    2.5090   -3.1610 C   0  0  0  0  0  0  0  0  0  0  0  0
    1.3300    4.4440    0.8720 C   0  0  0  0  0  0  0  0  0  0  0  0
   -3.6110    2.3580   -5.5350 C   0  0  0  0  0  0  0  0  0  0  0  0
    2.3990    5.0690   -1.3040 C   0  0  0  0  0  0  0  0  0  0  0  0
    1.4920    5.5350   -0.1790 C   0  0  0  0  0  0  0  0  0  0  0  0
   -1.3480   -1.4420    4.0120 C   0  0  0  0  0  0  0  0  0  0  0  0
   -3.9460    3.8430   -5.7030 C   0  0  0  0  0  0  0  0  0  0  0  0
   -4.8680    1.5500   -5.1990 C   0  0  0  0  0  0  0  0  0  0  0  0
   -2.5000   -0.4430    3.9660 C   0  0  0  0  0  0  0  0  0  0  0  0
   -0.6540   -2.6740   -0.0570 H   0  0  0  0  0  0  0  0  0  0  0  0
    1.5460    1.0270   -2.1180 H   0  0  0  0  0  0  0  0  0  0  0  0
    0.1730    2.4930    2.0500 H   0  0  0  0  0  0  0  0  0  0  0  0
    0.6470    0.9180   -4.2780 H   0  0  0  0  0  0  0  0  0  0  0  0
   -1.8350    2.5920   -1.2000 H   0  0  0  0  0  0  0  0  0  0  0  0
   -1.1580    1.2840   -5.9210 H   0  0  0  0  0  0  0  0  0  0  0  0
   -3.6270    2.9520   -2.8500 H   0  0  0  0  0  0  0  0  0  0  0  0
    2.2720    4.3300    1.4080 H   0  0  0  0  0  0  0  0  0  0  0  0
    0.5490    4.7430    1.5710 H   0  0  0  0  0  0  0  0  0  0  0  0
   -3.2250    1.9940   -6.4870 H   0  0  0  0  0  0  0  0  0  0  0  0
    2.4170    5.8310   -2.0830 H   0  0  0  0  0  0  0  0  0  0  0  0
    3.4060    4.9260   -0.9120 H   0  0  0  0  0  0  0  0  0  0  0  0
    1.9270    6.4190    0.2880 H   0  0  0  0  0  0  0  0  0  0  0  0
    0.5130    5.7850   -0.5890 H   0  0  0  0  0  0  0  0  0  0  0  0
   -0.4180   -0.8950    4.1640 H   0  0  0  0  0  0  0  0  0  0  0  0
   -1.5100   -2.1220    4.8480 H   0  0  0  0  0  0  0  0  0  0  0  0
   -4.3350    4.2360   -4.7640 H   0  0  0  0  0  0  0  0  0  0  0  0
   -4.6970    3.9600   -6.4850 H   0  0  0  0  0  0  0  0  0  0  0  0
   -3.0450    4.3900   -5.9800 H   0  0  0  0  0  0  0  0  0  0  0  0
   -5.2770    1.8930   -4.2490 H   0  0  0  0  0  0  0  0  0  0  0  0
   -4.6110    0.4930   -5.1240 H   0  0  0  0  0  0  0  0  0  0  0  0
   -5.6100    1.6890   -5.9850 H   0  0  0  0  0  0  0  0  0  0  0  0
   -2.3510    0.2450    3.1340 H   0  0  0  0  0  0  0  0  0  0  0  0
   -2.5320    0.1180    4.9000 H   0  0  0  0  0  0  0  0  0  0  0  0
   -3.4400   -0.9780    3.8320 H   0  0  0  0  0  0  0  0  0  0  0  0
  1  2  2  0  0  0  0
  1  3  1  0  0  0  0
  1  8  1  0  0  0  0
  2  4  1  0  0  0  0
  2  7  1  0  0  0  0
  3 10  2  0  0  0  0
  4  5  1  0  0  0  0
  4 13  2  0  0  0  0
  5 10  1  0  0  0  0
  5 29  1  0  0  0  0
  6  7  1  0  0  0  0
  6  9  2  0  0  0  0
  6 11  1  0  0  0  0
  7 12  1  0  0  0  0
  7 30  1  6  0  0  0
  8  9  1  0  0  0  0
  8 31  1  0  0  0  0
  9 21  1  0  0  0  0
 10 15  1  0  0  0  0
 11 16  2  0  0  0  0
 11 23  1  0  0  0  0
 12 17  2  0  0  0  0
 12 18  1  0  0  0  0
 14 19  2  0  0  0  0
 14 20  1  0  0  0  0
 14 22  1  0  0  0  0
 15 25  1  0  0  0  0
 17 19  1  0  0  0  0
 17 32  1  0  0  0  0
 18 20  2  0  0  0  0
 18 33  1  0  0  0  0
 19 34  1  0  0  0  0
 20 35  1  0  0  0  0
 21 24  1  0  0  0  0
 21 36  1  0  0  0  0
 21 37  1  0  0  0  0
 22 26  1  0  0  0  0
 22 27  1  0  0  0  0
 22 38  1  0  0  0  0
 23 24  1  0  0  0  0
 23 39  1  0  0  0  0
 23 40  1  0  0  0  0
 24 41  1  0  0  0  0
 24 42  1  0  0  0  0
 25 28  1  0  0  0  0
 25 43  1  0  0  0  0
 25 44  1  0  0  0  0
 26 45  1  0  0  0  0
 26 46  1  0  0  0  0
 26 47  1  0  0  0  0
 27 48  1  0  0  0  0
 27 49  1  0  0  0  0
 27 50  1  0  0  0  0
 28 51  1  0  0  0  0
 28 52  1  0  0  0  0
 28 53  1  0  0  0  0
M  END
>  <$CLUSTER>
606

>  <INDEX>
274978

$$$$
