Life Chemicals F0642-0697
 OpenBabel04062209303D

 37 39  0  0  0  0  0  0  0  0999 V2000
   -1.1660    0.9650    0.4690 N   0  0  0  0  0  0  0  0  0  0  0  0
   -0.8780   -0.3200    0.3930 C   0  0  0  0  0  0  0  0  0  0  0  0
   -2.5280    1.1580    0.3500 C   0  0  0  0  0  0  0  0  0  0  0  0
   -2.2540   -1.3490    0.1750 S   0  0  0  0  0  0  0  0  0  0  0  0
   -3.2800    0.0190    0.1840 C   0  0  0  0  0  0  0  0  0  0  0  0
    2.4910   -0.2310   -0.3130 C   0  0  0  0  0  0  0  0  0  0  0  0
    1.4950   -0.1210    0.6340 N   0  0  0  0  0  0  0  0  0  0  0  0
    0.3570   -0.8690    0.4700 N   0  0  0  0  0  0  0  0  0  0  0  0
    3.6780    0.6410   -0.0040 C   0  0  0  0  0  0  0  0  0  0  0  0
   -3.1780    2.4340    0.3890 C   0  0  0  0  0  0  0  0  0  0  0  0
    2.4690   -0.9660   -1.2980 O   0  0  0  0  0  0  0  0  0  0  0  0
    4.4860    1.0010   -1.1230 C   0  0  0  0  0  0  0  0  0  0  0  0
    4.0370    1.0480    1.2540 C   0  0  0  0  0  0  0  0  0  0  0  0
    5.9560    2.2200    0.3580 C   0  0  0  0  0  0  0  0  0  0  0  0
    5.6150    1.7980   -0.9260 C   0  0  0  0  0  0  0  0  0  0  0  0
    5.1690    1.8440    1.4460 C   0  0  0  0  0  0  0  0  0  0  0  0
    7.0460    2.9810    0.4590 F   0  0  0  0  0  0  0  0  0  0  0  0
   -2.3780    3.5340    0.5560 O   0  0  0  0  0  0  0  0  0  0  0  0
   -4.6810    0.0520    0.0480 C   0  0  0  0  0  0  0  0  0  0  0  0
   -5.3100    1.2960    0.0860 C   0  0  0  0  0  0  0  0  0  0  0  0
   -4.5750    2.4680    0.2520 C   0  0  0  0  0  0  0  0  0  0  0  0
   -3.0140    4.8110    0.5960 C   0  0  0  0  0  0  0  0  0  0  0  0
   -1.9370    5.8620    0.7880 C   0  0  0  0  0  0  0  0  0  0  0  0
    1.6010    0.4940    1.4280 H   0  0  0  0  0  0  0  0  0  0  0  0
    0.4440   -1.8730    0.4040 H   0  0  0  0  0  0  0  0  0  0  0  0
    4.2260    0.6600   -2.1140 H   0  0  0  0  0  0  0  0  0  0  0  0
    3.4400    0.7510    2.1040 H   0  0  0  0  0  0  0  0  0  0  0  0
    6.2250    2.0880   -1.7690 H   0  0  0  0  0  0  0  0  0  0  0  0
    5.4360    2.1690    2.4410 H   0  0  0  0  0  0  0  0  0  0  0  0
   -5.2500   -0.8570   -0.0820 H   0  0  0  0  0  0  0  0  0  0  0  0
   -6.3840    1.3520   -0.0150 H   0  0  0  0  0  0  0  0  0  0  0  0
   -5.0880    3.4180    0.2760 H   0  0  0  0  0  0  0  0  0  0  0  0
   -3.7190    4.8480    1.4260 H   0  0  0  0  0  0  0  0  0  0  0  0
   -3.5440    4.9900   -0.3390 H   0  0  0  0  0  0  0  0  0  0  0  0
   -1.4110    5.6770    1.7250 H   0  0  0  0  0  0  0  0  0  0  0  0
   -2.3950    6.8510    0.8180 H   0  0  0  0  0  0  0  0  0  0  0  0
   -1.2310    5.8140   -0.0410 H   0  0  0  0  0  0  0  0  0  0  0  0
  1  2  2  0  0  0  0
  1  3  1  0  0  0  0
  2  4  1  0  0  0  0
  2  8  1  0  0  0  0
  3  5  2  0  0  0  0
  3 10  1  0  0  0  0
  4  5  1  0  0  0  0
  5 19  1  0  0  0  0
  6  7  1  0  0  0  0
  6  9  1  0  0  0  0
  6 11  2  0  0  0  0
  7  8  1  0  0  0  0
  7 24  1  0  0  0  0
  8 25  1  0  0  0  0
  9 12  2  0  0  0  0
  9 13  1  0  0  0  0
 10 18  1  0  0  0  0
 10 21  2  0  0  0  0
 12 15  1  0  0  0  0
 12 26  1  0  0  0  0
 13 16  2  0  0  0  0
 13 27  1  0  0  0  0
 14 15  2  0  0  0  0
 14 16  1  0  0  0  0
 14 17  1  0  0  0  0
 15 28  1  0  0  0  0
 16 29  1  0  0  0  0
 18 22  1  0  0  0  0
 19 20  2  0  0  0  0
 19 30  1  0  0  0  0
 20 21  1  0  0  0  0
 20 31  1  0  0  0  0
 21 32  1  0  0  0  0
 22 23  1  0  0  0  0
 22 33  1  0  0  0  0
 22 34  1  0  0  0  0
 23 35  1  0  0  0  0
 23 36  1  0  0  0  0
 23 37  1  0  0  0  0
M  END
>  <$CLUSTER>
735

>  <INDEX>
280059

$$$$
