Chem T&I AMSACS-26179
 OpenBabel04062209303D

 38 39  0  0  0  0  0  0  0  0999 V2000
    1.6960    1.3810   -0.0550 S   0  0  0  0  0  0  0  0  0  0  0  0
    0.7910    0.3800    0.9780 N   0  0  0  0  0  0  0  0  0  0  0  0
   -0.3090   -0.4030    0.4890 C   0  0  0  0  0  0  0  0  0  0  0  0
    0.5040    2.6520   -0.4140 C   0  0  0  0  0  0  0  0  0  0  0  0
   -0.3890   -0.6460   -0.8370 N   0  0  0  0  0  0  0  0  0  0  0  0
    2.0190    0.6980   -1.2910 O   0  0  0  0  0  0  0  0  0  0  0  0
    2.7450    2.0020    0.7340 O   0  0  0  0  0  0  0  0  0  0  0  0
    0.4160    3.7690    0.4010 C   0  0  0  0  0  0  0  0  0  0  0  0
   -0.5120    4.7640    0.0910 C   0  0  0  0  0  0  0  0  0  0  0  0
   -1.3990   -1.4410   -1.2570 C   0  0  0  0  0  0  0  0  0  0  0  0
   -1.3360    4.6310   -1.0270 C   0  0  0  0  0  0  0  0  0  0  0  0
   -0.3090    2.5020   -1.5400 C   0  0  0  0  0  0  0  0  0  0  0  0
   -1.1790   -0.9640    1.4170 C   0  0  0  0  0  0  0  0  0  0  0  0
   -1.2340    3.5020   -1.8410 C   0  0  0  0  0  0  0  0  0  0  0  0
   -2.2060   -1.7790    0.9500 C   0  0  0  0  0  0  0  0  0  0  0  0
   -2.3270   -2.0250   -0.4120 C   0  0  0  0  0  0  0  0  0  0  0  0
   -0.6290    5.9770    0.9560 C   0  0  0  0  0  0  0  0  0  0  0  0
   -2.3260    5.7020   -1.3490 C   0  0  0  0  0  0  0  0  0  0  0  0
   -1.4970   -1.6910   -2.7350 C   0  0  0  0  0  0  0  0  0  0  0  0
   -3.1710   -2.3840    1.9160 C   0  0  0  0  0  0  0  0  0  0  0  0
    1.0320    0.3350    1.9580 H   0  0  0  0  0  0  0  0  0  0  0  0
    1.0570    3.8680    1.2650 H   0  0  0  0  0  0  0  0  0  0  0  0
   -0.2230    1.6270   -2.1670 H   0  0  0  0  0  0  0  0  0  0  0  0
   -1.0610   -0.7720    2.4730 H   0  0  0  0  0  0  0  0  0  0  0  0
   -1.8730    3.4020   -2.7060 H   0  0  0  0  0  0  0  0  0  0  0  0
   -3.1180   -2.6510   -0.7980 H   0  0  0  0  0  0  0  0  0  0  0  0
    0.0870    5.9090    1.7750 H   0  0  0  0  0  0  0  0  0  0  0  0
   -1.6390    6.0390    1.3610 H   0  0  0  0  0  0  0  0  0  0  0  0
   -0.4200    6.8680    0.3630 H   0  0  0  0  0  0  0  0  0  0  0  0
   -2.2570    6.4960   -0.6050 H   0  0  0  0  0  0  0  0  0  0  0  0
   -3.3320    5.2820   -1.3400 H   0  0  0  0  0  0  0  0  0  0  0  0
   -2.1110    6.1100   -2.3370 H   0  0  0  0  0  0  0  0  0  0  0  0
   -0.6950   -1.1600   -3.2470 H   0  0  0  0  0  0  0  0  0  0  0  0
   -2.4600   -1.3350   -3.1010 H   0  0  0  0  0  0  0  0  0  0  0  0
   -1.4070   -2.7600   -2.9290 H   0  0  0  0  0  0  0  0  0  0  0  0
   -2.9120   -2.0760    2.9290 H   0  0  0  0  0  0  0  0  0  0  0  0
   -3.1250   -3.4710    1.8440 H   0  0  0  0  0  0  0  0  0  0  0  0
   -4.1800   -2.0470    1.6800 H   0  0  0  0  0  0  0  0  0  0  0  0
  1  2  1  0  0  0  0
  1  4  1  0  0  0  0
  1  6  2  0  0  0  0
  1  7  2  0  0  0  0
  2  3  1  0  0  0  0
  2 21  1  0  0  0  0
  3  5  2  0  0  0  0
  3 13  1  0  0  0  0
  4  8  1  0  0  0  0
  4 12  2  0  0  0  0
  5 10  1  0  0  0  0
  8  9  2  0  0  0  0
  8 22  1  0  0  0  0
  9 11  1  0  0  0  0
  9 17  1  0  0  0  0
 10 16  2  0  0  0  0
 10 19  1  0  0  0  0
 11 14  2  0  0  0  0
 11 18  1  0  0  0  0
 12 14  1  0  0  0  0
 12 23  1  0  0  0  0
 13 15  2  0  0  0  0
 13 24  1  0  0  0  0
 14 25  1  0  0  0  0
 15 16  1  0  0  0  0
 15 20  1  0  0  0  0
 16 26  1  0  0  0  0
 17 27  1  0  0  0  0
 17 28  1  0  0  0  0
 17 29  1  0  0  0  0
 18 30  1  0  0  0  0
 18 31  1  0  0  0  0
 18 32  1  0  0  0  0
 19 33  1  0  0  0  0
 19 34  1  0  0  0  0
 19 35  1  0  0  0  0
 20 36  1  0  0  0  0
 20 37  1  0  0  0  0
 20 38  1  0  0  0  0
M  END
>  <$CLUSTER>
688

>  <INDEX>
523713

$$$$
