Tripos 1527-02989
 OpenBabel04062209303D

 34 35  0  0  0  0  0  0  0  0999 V2000
   -2.3160    0.0880   -0.5130 C   0  0  0  0  0  0  0  0  0  0  0  0
    2.6180   -0.0790   -0.3030 C   0  0  0  0  0  0  0  0  0  0  0  0
    1.3950    0.2080   -0.9120 C   0  0  0  0  0  0  0  0  0  0  0  0
   -1.0050    0.2590   -0.9460 N   0  0  0  0  0  0  0  0  0  0  0  0
    0.1850   -0.0640   -0.2540 C   0  0  0  0  0  0  0  0  0  0  0  0
    2.6480   -0.6400    0.9700 C   0  0  0  0  0  0  0  0  0  0  0  0
   -2.6940   -0.3780    0.5580 O   0  0  0  0  0  0  0  0  0  0  0  0
   -3.2200    0.5230   -1.4700 N   0  0  0  0  0  0  0  0  0  0  0  0
    1.4530   -0.9140    1.6320 C   0  0  0  0  0  0  0  0  0  0  0  0
    4.0650    0.2640   -1.1330 Cl  0  0  0  0  0  0  0  0  0  0  0  0
    0.2250   -0.6280    1.0250 C   0  0  0  0  0  0  0  0  0  0  0  0
    3.7690   -0.9440    1.6230 F   0  0  0  0  0  0  0  0  0  0  0  0
   -4.6650    0.4830   -1.3250 C   0  0  0  0  0  0  0  0  0  0  0  0
   -6.7380   -0.9170   -1.6010 C   0  0  0  0  0  0  0  0  0  0  0  0
   -5.2260   -0.8650   -1.7370 C   0  0  0  0  0  0  0  0  0  0  0  0
   -7.5570   -0.5290   -2.6670 C   0  0  0  0  0  0  0  0  0  0  0  0
   -7.3260   -1.3190   -0.3980 C   0  0  0  0  0  0  0  0  0  0  0  0
   -8.7150   -1.3480   -0.2670 C   0  0  0  0  0  0  0  0  0  0  0  0
   -8.9460   -0.5580   -2.5340 C   0  0  0  0  0  0  0  0  0  0  0  0
   -9.5230   -0.9690   -1.3350 C   0  0  0  0  0  0  0  0  0  0  0  0
    1.3800    0.6440   -1.9000 H   0  0  0  0  0  0  0  0  0  0  0  0
   -0.8890    0.6620   -1.8650 H   0  0  0  0  0  0  0  0  0  0  0  0
   -2.8460    0.8950   -2.3310 H   0  0  0  0  0  0  0  0  0  0  0  0
    1.4750   -1.3500    2.6200 H   0  0  0  0  0  0  0  0  0  0  0  0
   -0.6960   -0.8440    1.5470 H   0  0  0  0  0  0  0  0  0  0  0  0
   -5.1060    1.2570   -1.9530 H   0  0  0  0  0  0  0  0  0  0  0  0
   -4.9220    0.6700   -0.2820 H   0  0  0  0  0  0  0  0  0  0  0  0
   -4.7890   -1.6370   -1.1030 H   0  0  0  0  0  0  0  0  0  0  0  0
   -4.9590   -1.0540   -2.7770 H   0  0  0  0  0  0  0  0  0  0  0  0
   -7.1120   -0.2060   -3.5970 H   0  0  0  0  0  0  0  0  0  0  0  0
   -6.7020   -1.6090    0.4340 H   0  0  0  0  0  0  0  0  0  0  0  0
   -9.1630   -1.6650    0.6630 H   0  0  0  0  0  0  0  0  0  0  0  0
   -9.5740   -0.2620   -3.3610 H   0  0  0  0  0  0  0  0  0  0  0  0
  -10.5980   -0.9940   -1.2340 H   0  0  0  0  0  0  0  0  0  0  0  0
  1  4  1  0  0  0  0
  1  7  2  0  0  0  0
  1  8  1  0  0  0  0
  2  3  2  0  0  0  0
  2  6  1  0  0  0  0
  2 10  1  0  0  0  0
  3  5  1  0  0  0  0
  3 21  1  0  0  0  0
  4  5  1  0  0  0  0
  4 22  1  0  0  0  0
  5 11  2  0  0  0  0
  6  9  2  0  0  0  0
  6 12  1  0  0  0  0
  8 13  1  0  0  0  0
  8 23  1  0  0  0  0
  9 11  1  0  0  0  0
  9 24  1  0  0  0  0
 11 25  1  0  0  0  0
 13 15  1  0  0  0  0
 13 26  1  0  0  0  0
 13 27  1  0  0  0  0
 14 15  1  0  0  0  0
 14 16  1  0  0  0  0
 14 17  2  0  0  0  0
 15 28  1  0  0  0  0
 15 29  1  0  0  0  0
 16 19  2  0  0  0  0
 16 30  1  0  0  0  0
 17 18  1  0  0  0  0
 17 31  1  0  0  0  0
 18 20  2  0  0  0  0
 18 32  1  0  0  0  0
 19 20  1  0  0  0  0
 19 33  1  0  0  0  0
 20 34  1  0  0  0  0
M  END
>  <$CLUSTER>
706

>  <INDEX>
449729

$$$$
