Asinex ASN 06235439
 OpenBabel04062209303D

 55 57  0  0  0  0  0  0  0  0999 V2000
   -1.4640    2.6350    0.7810 C   0  0  0  0  0  0  0  0  0  0  0  0
   -1.1630    1.3380    0.4970 N   0  0  0  0  0  0  0  0  0  0  0  0
    2.2530   -2.7210   -0.3780 C   0  0  0  0  0  0  0  0  0  0  0  0
   -1.5350    2.9490    2.1220 N   0  0  0  0  0  0  0  0  0  0  0  0
    1.8860   -1.4190   -0.6350 N   0  0  0  0  0  0  0  0  0  0  0  0
   -1.8090    4.1250    2.8160 C   0  0  0  0  0  0  0  0  0  0  0  0
    3.6650   -3.0050   -0.8130 C   0  0  0  0  0  0  0  0  0  0  0  0
   -1.6830    3.4960   -0.0740 O   0  0  0  0  0  0  0  0  0  0  0  0
   -1.1890    0.8160   -0.8750 C   0  0  0  0  0  0  0  0  0  0  0  0
   -0.8030    0.2860    1.4560 C   0  0  0  0  0  0  0  0  0  0  0  0
    1.5510   -3.5750    0.1570 O   0  0  0  0  0  0  0  0  0  0  0  0
    0.5640   -0.8880   -0.2950 C   0  0  0  0  0  0  0  0  0  0  0  0
    0.1530    0.2080   -1.2790 C   0  0  0  0  0  0  0  0  0  0  0  0
    0.5520   -0.3410    1.1330 C   0  0  0  0  0  0  0  0  0  0  0  0
   -2.3730    6.4820    2.9060 C   0  0  0  0  0  0  0  0  0  0  0  0
   -2.0620    5.2560    4.9560 C   0  0  0  0  0  0  0  0  0  0  0  0
   -1.7930    4.1020    4.2180 C   0  0  0  0  0  0  0  0  0  0  0  0
   -2.1010    5.3270    2.1650 C   0  0  0  0  0  0  0  0  0  0  0  0
    4.3130   -4.0860   -0.1420 C   0  0  0  0  0  0  0  0  0  0  0  0
    4.3080   -2.3580   -1.8340 C   0  0  0  0  0  0  0  0  0  0  0  0
   -2.3520    6.4480    4.2980 C   0  0  0  0  0  0  0  0  0  0  0  0
    6.2640   -3.7510   -1.5280 C   0  0  0  0  0  0  0  0  0  0  0  0
    5.6110   -2.7150   -2.1940 C   0  0  0  0  0  0  0  0  0  0  0  0
    5.6140   -4.4370   -0.5040 C   0  0  0  0  0  0  0  0  0  0  0  0
    7.5370   -4.2020   -1.7970 O   0  0  0  0  0  0  0  0  0  0  0  0
   -2.6850    7.7630    2.1980 C   0  0  0  0  0  0  0  0  0  0  0  0
   -2.0370    5.2080    6.4480 C   0  0  0  0  0  0  0  0  0  0  0  0
    8.2490   -3.5410   -2.8370 C   0  0  0  0  0  0  0  0  0  0  0  0
   -1.3500    2.1620    2.7270 H   0  0  0  0  0  0  0  0  0  0  0  0
    2.5560   -0.8050   -1.0760 H   0  0  0  0  0  0  0  0  0  0  0  0
   -1.4260    1.6320   -1.5580 H   0  0  0  0  0  0  0  0  0  0  0  0
   -1.9590    0.0480   -0.9450 H   0  0  0  0  0  0  0  0  0  0  0  0
   -1.5660   -0.4920    1.4290 H   0  0  0  0  0  0  0  0  0  0  0  0
   -0.7610    0.7200    2.4550 H   0  0  0  0  0  0  0  0  0  0  0  0
   -0.1540   -1.7050   -0.3620 H   0  0  0  0  0  0  0  0  0  0  0  0
    0.9130    0.9890   -1.2840 H   0  0  0  0  0  0  0  0  0  0  0  0
    0.0660   -0.2210   -2.2770 H   0  0  0  0  0  0  0  0  0  0  0  0
    0.7450   -1.1560    1.8310 H   0  0  0  0  0  0  0  0  0  0  0  0
    1.3300    0.4160    1.2340 H   0  0  0  0  0  0  0  0  0  0  0  0
   -1.5700    3.1800    4.7330 H   0  0  0  0  0  0  0  0  0  0  0  0
   -2.1170    5.3640    1.0860 H   0  0  0  0  0  0  0  0  0  0  0  0
    3.8000   -4.6270    0.6390 H   0  0  0  0  0  0  0  0  0  0  0  0
    3.8040   -1.5650   -2.3660 H   0  0  0  0  0  0  0  0  0  0  0  0
   -2.5600    7.3430    4.8650 H   0  0  0  0  0  0  0  0  0  0  0  0
    6.1130   -2.1860   -2.9910 H   0  0  0  0  0  0  0  0  0  0  0  0
    6.1180   -5.2420    0.0100 H   0  0  0  0  0  0  0  0  0  0  0  0
   -2.6560    7.5990    1.1210 H   0  0  0  0  0  0  0  0  0  0  0  0
   -1.9470    8.5180    2.4710 H   0  0  0  0  0  0  0  0  0  0  0  0
   -3.6790    8.1050    2.4870 H   0  0  0  0  0  0  0  0  0  0  0  0
   -1.7930    4.1970    6.7750 H   0  0  0  0  0  0  0  0  0  0  0  0
   -3.0150    5.4900    6.8370 H   0  0  0  0  0  0  0  0  0  0  0  0
   -1.2840    5.9020    6.8210 H   0  0  0  0  0  0  0  0  0  0  0  0
    9.2350   -3.9920   -2.9460 H   0  0  0  0  0  0  0  0  0  0  0  0
    8.3580   -2.4850   -2.5890 H   0  0  0  0  0  0  0  0  0  0  0  0
    7.6990   -3.6390   -3.7730 H   0  0  0  0  0  0  0  0  0  0  0  0
  1  2  1  0  0  0  0
  1  4  1  0  0  0  0
  1  8  2  0  0  0  0
  2  9  1  0  0  0  0
  2 10  1  0  0  0  0
  3  5  1  0  0  0  0
  3  7  1  0  0  0  0
  3 11  2  0  0  0  0
  4  6  1  0  0  0  0
  4 29  1  0  0  0  0
  5 12  1  0  0  0  0
  5 30  1  0  0  0  0
  6 17  2  0  0  0  0
  6 18  1  0  0  0  0
  7 19  1  0  0  0  0
  7 20  2  0  0  0  0
  9 13  1  0  0  0  0
  9 31  1  0  0  0  0
  9 32  1  0  0  0  0
 10 14  1  0  0  0  0
 10 33  1  0  0  0  0
 10 34  1  0  0  0  0
 12 13  1  0  0  0  0
 12 14  1  0  0  0  0
 12 35  1  0  0  0  0
 13 36  1  0  0  0  0
 13 37  1  0  0  0  0
 14 38  1  0  0  0  0
 14 39  1  0  0  0  0
 15 18  2  0  0  0  0
 15 21  1  0  0  0  0
 15 26  1  0  0  0  0
 16 17  1  0  0  0  0
 16 21  2  0  0  0  0
 16 27  1  0  0  0  0
 17 40  1  0  0  0  0
 18 41  1  0  0  0  0
 19 24  2  0  0  0  0
 19 42  1  0  0  0  0
 20 23  1  0  0  0  0
 20 43  1  0  0  0  0
 21 44  1  0  0  0  0
 22 23  2  0  0  0  0
 22 24  1  0  0  0  0
 22 25  1  0  0  0  0
 23 45  1  0  0  0  0
 24 46  1  0  0  0  0
 25 28  1  0  0  0  0
 26 47  1  0  0  0  0
 26 48  1  0  0  0  0
 26 49  1  0  0  0  0
 27 50  1  0  0  0  0
 27 51  1  0  0  0  0
 27 52  1  0  0  0  0
 28 53  1  0  0  0  0
 28 54  1  0  0  0  0
 28 55  1  0  0  0  0
M  END
>  <$CLUSTER>
250

>  <INDEX>
156626

$$$$
