Enamine T0503-9700
 OpenBabel04062209303D

 43 45  0  0  0  0  0  0  0  0999 V2000
   -5.9720    0.5500   -2.6220 N   0  0  0  0  0  0  0  0  0  0  0  0
   -5.1460    1.5820   -2.9750 C   0  0  0  0  0  0  0  0  0  0  0  0
   -4.0560    0.1650   -1.6450 C   0  0  0  0  0  0  0  0  0  0  0  0
   -5.3060   -0.3280   -1.8010 C   0  0  0  0  0  0  0  0  0  0  0  0
    0.8240    0.9250   -0.2860 N   0  0  0  0  0  0  0  0  0  0  0  0
   -3.9270    1.3660   -2.3730 C   0  0  0  0  0  0  0  0  0  0  0  0
    0.3700   -0.2220    0.2840 C   0  0  0  0  0  0  0  0  0  0  0  0
    2.1050    1.2770   -0.0270 C   0  0  0  0  0  0  0  0  0  0  0  0
    1.1370   -1.0050    1.0810 N   0  0  0  0  0  0  0  0  0  0  0  0
    2.9540    0.5420    0.7700 C   0  0  0  0  0  0  0  0  0  0  0  0
   -1.8080    0.0540   -0.7210 N   0  0  0  0  0  0  0  0  0  0  0  0
    2.4090   -0.6030    1.3040 C   0  0  0  0  0  0  0  0  0  0  0  0
   -7.3730    0.4750   -3.0710 C   0  0  0  0  0  0  0  0  0  0  0  0
   -2.9860   -0.4830   -0.8200 C   0  0  0  0  0  0  0  0  0  0  0  0
   -0.9470   -0.6500    0.0610 N   0  0  0  0  0  0  0  0  0  0  0  0
    2.5540    2.4410   -0.6100 O   0  0  0  0  0  0  0  0  0  0  0  0
   -5.4580    2.7980   -3.8110 C   0  0  0  0  0  0  0  0  0  0  0  0
   -5.9730   -1.5430   -1.2680 C   0  0  0  0  0  0  0  0  0  0  0  0
    3.2700   -1.5090    2.2160 C   0  0  0  0  0  0  0  0  0  0  0  0
   -7.7110    0.7200   -4.4070 C   0  0  0  0  0  0  0  0  0  0  0  0
   -8.3760    0.1240   -2.1580 C   0  0  0  0  0  0  0  0  0  0  0  0
   -9.7020    0.0190   -2.5820 C   0  0  0  0  0  0  0  0  0  0  0  0
   -9.0390    0.6110   -4.8240 C   0  0  0  0  0  0  0  0  0  0  0  0
  -10.0340    0.2620   -3.9130 C   0  0  0  0  0  0  0  0  0  0  0  0
   -3.0490    1.9900   -2.4440 H   0  0  0  0  0  0  0  0  0  0  0  0
    3.9730    0.8420    0.9620 H   0  0  0  0  0  0  0  0  0  0  0  0
   -3.1970   -1.4070   -0.3020 H   0  0  0  0  0  0  0  0  0  0  0  0
   -1.2650   -1.5060    0.4940 H   0  0  0  0  0  0  0  0  0  0  0  0
    3.4650    2.6690   -0.4120 H   0  0  0  0  0  0  0  0  0  0  0  0
   -6.4840    2.7360   -4.1740 H   0  0  0  0  0  0  0  0  0  0  0  0
   -4.7740    2.8410   -4.6590 H   0  0  0  0  0  0  0  0  0  0  0  0
   -5.3410    3.6960   -3.2040 H   0  0  0  0  0  0  0  0  0  0  0  0
   -7.0000   -1.5830   -1.6320 H   0  0  0  0  0  0  0  0  0  0  0  0
   -5.9750   -1.5080   -0.1790 H   0  0  0  0  0  0  0  0  0  0  0  0
   -5.4340   -2.4300   -1.6020 H   0  0  0  0  0  0  0  0  0  0  0  0
    2.6770   -2.3630    2.5440 H   0  0  0  0  0  0  0  0  0  0  0  0
    3.6000   -0.9410    3.0860 H   0  0  0  0  0  0  0  0  0  0  0  0
    4.1390   -1.8620    1.6610 H   0  0  0  0  0  0  0  0  0  0  0  0
   -6.9440    0.9940   -5.1160 H   0  0  0  0  0  0  0  0  0  0  0  0
   -8.1230   -0.0660   -1.1250 H   0  0  0  0  0  0  0  0  0  0  0  0
  -10.4730   -0.2520   -1.8760 H   0  0  0  0  0  0  0  0  0  0  0  0
   -9.2960    0.7980   -5.8560 H   0  0  0  0  0  0  0  0  0  0  0  0
  -11.0610    0.1800   -4.2380 H   0  0  0  0  0  0  0  0  0  0  0  0
  1  2  1  0  0  0  0
  1  4  1  0  0  0  0
  1 13  1  0  0  0  0
  2  6  2  0  0  0  0
  2 17  1  0  0  0  0
  3  4  2  0  0  0  0
  3  6  1  0  0  0  0
  3 14  1  0  0  0  0
  4 18  1  0  0  0  0
  5  7  2  0  0  0  0
  5  8  1  0  0  0  0
  6 25  1  0  0  0  0
  7  9  1  0  0  0  0
  7 15  1  0  0  0  0
  8 10  2  0  0  0  0
  8 16  1  0  0  0  0
  9 12  2  0  0  0  0
 10 12  1  0  0  0  0
 10 26  1  0  0  0  0
 11 14  2  0  0  0  0
 11 15  1  0  0  0  0
 12 19  1  0  0  0  0
 13 20  1  0  0  0  0
 13 21  2  0  0  0  0
 14 27  1  0  0  0  0
 15 28  1  0  0  0  0
 16 29  1  0  0  0  0
 17 30  1  0  0  0  0
 17 31  1  0  0  0  0
 17 32  1  0  0  0  0
 18 33  1  0  0  0  0
 18 34  1  0  0  0  0
 18 35  1  0  0  0  0
 19 36  1  0  0  0  0
 19 37  1  0  0  0  0
 19 38  1  0  0  0  0
 20 23  2  0  0  0  0
 20 39  1  0  0  0  0
 21 22  1  0  0  0  0
 21 40  1  0  0  0  0
 22 24  2  0  0  0  0
 22 41  1  0  0  0  0
 23 24  1  0  0  0  0
 23 42  1  0  0  0  0
 24 43  1  0  0  0  0
M  END
>  <$CLUSTER>
626

>  <INDEX>
409469

$$$$
