Tripos 1513-09513
 OpenBabel04062209303D

 52 54  0  0  1  0  0  0  0  0999 V2000
    3.3070    3.2860   -0.9430 S   0  0  0  0  0  0  0  0  0  0  0  0
    1.9470    2.3260   -0.7160 N   0  0  0  0  0  0  0  0  0  0  0  0
   -0.0450    0.2380   -0.1700 N   0  0  0  0  0  0  0  0  0  0  0  0
    1.6320    1.8820    0.6670 C   0  0  0  0  0  0  0  0  0  0  0  0
    0.2090    1.2990    0.8370 C   0  0  1  0  0  0  0  0  0  0  0  0
   -0.7050   -0.9670    0.1510 C   0  0  0  0  0  0  0  0  0  0  0  0
    1.8960    4.5610   -1.4050 C   0  0  0  0  0  0  0  0  0  0  0  0
    1.7480    1.1760   -1.6350 C   0  0  0  0  0  0  0  0  0  0  0  0
    0.3460    0.5430   -1.5620 C   0  0  0  0  0  0  0  0  0  0  0  0
    3.8510    3.8470    0.2280 O   0  0  0  0  0  0  0  0  0  0  0  0
    3.9710    3.1110   -2.1720 O   0  0  0  0  0  0  0  0  0  0  0  0
   -0.9920    8.3110   -3.7130 C   0  0  0  0  0  0  0  0  0  0  0  0
   -0.4950    7.9250   -2.4760 N   0  0  0  0  0  0  0  0  0  0  0  0
   -1.5460   -1.6090   -0.7770 C   0  0  0  0  0  0  0  0  0  0  0  0
   -0.8220    7.7640   -4.7990 O   0  0  0  0  0  0  0  0  0  0  0  0
    1.6320    4.8590   -2.7840 C   0  0  0  0  0  0  0  0  0  0  0  0
    1.5540    5.6060   -0.4750 C   0  0  0  0  0  0  0  0  0  0  0  0
    0.3040    6.7860   -2.1760 C   0  0  0  0  0  0  0  0  0  0  0  0
   -2.2080   -2.8010   -0.4690 C   0  0  0  0  0  0  0  0  0  0  0  0
    0.7710    5.8970   -3.1450 C   0  0  0  0  0  0  0  0  0  0  0  0
    0.6930    6.6420   -0.8440 C   0  0  0  0  0  0  0  0  0  0  0  0
   -0.5570   -1.5850    1.4060 C   0  0  0  0  0  0  0  0  0  0  0  0
   -0.8700    2.3810    0.7090 C   0  0  0  0  0  0  0  0  0  0  0  0
   -1.2150   -2.7790    1.7190 C   0  0  0  0  0  0  0  0  0  0  0  0
   -1.8290    9.5600   -3.6000 C   0  0  0  0  0  0  0  0  0  0  0  0
   -2.0430   -3.3880    0.7810 C   0  0  0  0  0  0  0  0  0  0  0  0
   -3.0950   -3.4450   -1.4850 C   0  0  0  0  0  0  0  0  0  0  0  0
    1.7320    2.7390    1.3320 H   0  0  0  0  0  0  0  0  0  0  0  0
    2.3520    1.1150    0.9520 H   0  0  0  0  0  0  0  0  0  0  0  0
    0.1570    0.8760    1.8400 H   0  0  0  0  0  0  0  0  0  0  0  0
    2.4820    0.4090   -1.3870 H   0  0  0  0  0  0  0  0  0  0  0  0
    1.9140    1.5210   -2.6550 H   0  0  0  0  0  0  0  0  0  0  0  0
   -0.3780    1.2380   -1.9880 H   0  0  0  0  0  0  0  0  0  0  0  0
    0.3450   -0.3810   -2.1400 H   0  0  0  0  0  0  0  0  0  0  0  0
   -0.7280    8.5230   -1.6960 H   0  0  0  0  0  0  0  0  0  0  0  0
   -1.6840   -1.1690   -1.7540 H   0  0  0  0  0  0  0  0  0  0  0  0
    2.1070    4.2710   -3.5550 H   0  0  0  0  0  0  0  0  0  0  0  0
    1.9690    5.5880    0.5220 H   0  0  0  0  0  0  0  0  0  0  0  0
    0.4660    6.0120   -4.1750 H   0  0  0  0  0  0  0  0  0  0  0  0
    0.3280    7.3320   -0.0980 H   0  0  0  0  0  0  0  0  0  0  0  0
    0.0810   -1.1260    2.1470 H   0  0  0  0  0  0  0  0  0  0  0  0
   -0.8320    2.8150   -0.2900 H   0  0  0  0  0  0  0  0  0  0  0  0
   -0.6930    3.1600    1.4510 H   0  0  0  0  0  0  0  0  0  0  0  0
   -1.8510    1.9370    0.8750 H   0  0  0  0  0  0  0  0  0  0  0  0
   -1.0800   -3.2290    2.6910 H   0  0  0  0  0  0  0  0  0  0  0  0
   -1.8560    9.8860   -2.5600 H   0  0  0  0  0  0  0  0  0  0  0  0
   -2.8430    9.3500   -3.9420 H   0  0  0  0  0  0  0  0  0  0  0  0
   -1.3930   10.3460   -4.2160 H   0  0  0  0  0  0  0  0  0  0  0  0
   -2.5530   -4.3090    1.0220 H   0  0  0  0  0  0  0  0  0  0  0  0
   -3.1000   -2.8460   -2.3950 H   0  0  0  0  0  0  0  0  0  0  0  0
   -4.1090   -3.5140   -1.0900 H   0  0  0  0  0  0  0  0  0  0  0  0
   -2.7230   -4.4450   -1.7100 H   0  0  0  0  0  0  0  0  0  0  0  0
  1  2  1  0  0  0  0
  1  7  1  0  0  0  0
  1 10  2  0  0  0  0
  1 11  2  0  0  0  0
  2  4  1  0  0  0  0
  2  8  1  0  0  0  0
  3  5  1  0  0  0  0
  3  6  1  0  0  0  0
  3  9  1  0  0  0  0
  4  5  1  0  0  0  0
  4 28  1  0  0  0  0
  4 29  1  0  0  0  0
  5 23  1  0  0  0  0
  5 30  1  1  0  0  0
  6 14  2  0  0  0  0
  6 22  1  0  0  0  0
  7 16  2  0  0  0  0
  7 17  1  0  0  0  0
  8  9  1  0  0  0  0
  8 31  1  0  0  0  0
  8 32  1  0  0  0  0
  9 33  1  0  0  0  0
  9 34  1  0  0  0  0
 12 13  1  0  0  0  0
 12 15  2  0  0  0  0
 12 25  1  0  0  0  0
 13 18  1  0  0  0  0
 13 35  1  0  0  0  0
 14 19  1  0  0  0  0
 14 36  1  0  0  0  0
 16 20  1  0  0  0  0
 16 37  1  0  0  0  0
 17 21  2  0  0  0  0
 17 38  1  0  0  0  0
 18 20  2  0  0  0  0
 18 21  1  0  0  0  0
 19 26  2  0  0  0  0
 19 27  1  0  0  0  0
 20 39  1  0  0  0  0
 21 40  1  0  0  0  0
 22 24  2  0  0  0  0
 22 41  1  0  0  0  0
 23 42  1  0  0  0  0
 23 43  1  0  0  0  0
 23 44  1  0  0  0  0
 24 26  1  0  0  0  0
 24 45  1  0  0  0  0
 25 46  1  0  0  0  0
 25 47  1  0  0  0  0
 25 48  1  0  0  0  0
 26 49  1  0  0  0  0
 27 50  1  0  0  0  0
 27 51  1  0  0  0  0
 27 52  1  0  0  0  0
M  END
>  <$CLUSTER>
690

>  <INDEX>
441294

$$$$
