Chembridge 7916788
 OpenBabel04062209303D

 38 39  0  0  0  0  0  0  0  0999 V2000
    0.5050    2.0520   -0.7350 S   0  0  0  0  0  0  0  0  0  0  0  0
    0.6050    0.4240   -1.2640 N   0  0  0  0  0  0  0  0  0  0  0  0
    1.6930    2.0340    0.5890 C   0  0  0  0  0  0  0  0  0  0  0  0
    1.0520    2.8960   -1.7810 O   0  0  0  0  0  0  0  0  0  0  0  0
   -0.7960    2.3370   -0.1630 O   0  0  0  0  0  0  0  0  0  0  0  0
    1.2650    1.7540    1.9030 C   0  0  0  0  0  0  0  0  0  0  0  0
    3.0340    2.3720    0.3590 C   0  0  0  0  0  0  0  0  0  0  0  0
    0.0220   -0.5940   -0.4320 C   0  0  0  0  0  0  0  0  0  0  0  0
    3.5180    2.0990    2.7120 C   0  0  0  0  0  0  0  0  0  0  0  0
    4.6380    2.1430    4.1220 S   0  0  0  0  0  0  0  0  0  0  0  0
   -1.0630   -2.5590    1.2270 C   0  0  0  0  0  0  0  0  0  0  0  0
    2.1810    1.7790    2.9560 C   0  0  0  0  0  0  0  0  0  0  0  0
    3.9440    2.3950    1.4160 C   0  0  0  0  0  0  0  0  0  0  0  0
    0.8630   -1.5010    0.2200 C   0  0  0  0  0  0  0  0  0  0  0  0
   -1.3610   -0.6700   -0.2530 C   0  0  0  0  0  0  0  0  0  0  0  0
    0.3180   -2.4830    1.0480 C   0  0  0  0  0  0  0  0  0  0  0  0
   -1.9010   -1.6540    0.5760 C   0  0  0  0  0  0  0  0  0  0  0  0
   -1.4770   -3.5710    2.0670 O   0  0  0  0  0  0  0  0  0  0  0  0
    6.1200    1.3660    3.4240 C   0  0  0  0  0  0  0  0  0  0  0  0
   -2.8810   -3.6990    2.2890 C   0  0  0  0  0  0  0  0  0  0  0  0
   -3.0990   -4.8660    3.2360 C   0  0  0  0  0  0  0  0  0  0  0  0
    1.0600    0.1870   -2.1340 H   0  0  0  0  0  0  0  0  0  0  0  0
    0.2280    1.5200    2.0950 H   0  0  0  0  0  0  0  0  0  0  0  0
    3.3640    2.6150   -0.6400 H   0  0  0  0  0  0  0  0  0  0  0  0
    1.8550    1.5510    3.9600 H   0  0  0  0  0  0  0  0  0  0  0  0
    4.9790    2.6420    1.2320 H   0  0  0  0  0  0  0  0  0  0  0  0
    1.9330   -1.4420    0.0830 H   0  0  0  0  0  0  0  0  0  0  0  0
   -2.0110    0.0310   -0.7550 H   0  0  0  0  0  0  0  0  0  0  0  0
    0.9660   -3.1850    1.5510 H   0  0  0  0  0  0  0  0  0  0  0  0
   -2.9700   -1.7150    0.7140 H   0  0  0  0  0  0  0  0  0  0  0  0
    6.9000    1.3240    4.1840 H   0  0  0  0  0  0  0  0  0  0  0  0
    6.4710    1.9510    2.5740 H   0  0  0  0  0  0  0  0  0  0  0  0
    5.8790    0.3550    3.0940 H   0  0  0  0  0  0  0  0  0  0  0  0
   -3.3900   -3.8890    1.3440 H   0  0  0  0  0  0  0  0  0  0  0  0
   -3.2710   -2.7830    2.7340 H   0  0  0  0  0  0  0  0  0  0  0  0
   -2.7070   -5.7780    2.7850 H   0  0  0  0  0  0  0  0  0  0  0  0
   -4.1660   -4.9840    3.4270 H   0  0  0  0  0  0  0  0  0  0  0  0
   -2.5810   -4.6730    4.1750 H   0  0  0  0  0  0  0  0  0  0  0  0
  1  2  1  0  0  0  0
  1  3  1  0  0  0  0
  1  4  2  0  0  0  0
  1  5  2  0  0  0  0
  2  8  1  0  0  0  0
  2 22  1  0  0  0  0
  3  6  2  0  0  0  0
  3  7  1  0  0  0  0
  6 12  1  0  0  0  0
  6 23  1  0  0  0  0
  7 13  2  0  0  0  0
  7 24  1  0  0  0  0
  8 14  2  0  0  0  0
  8 15  1  0  0  0  0
  9 10  1  0  0  0  0
  9 12  2  0  0  0  0
  9 13  1  0  0  0  0
 10 19  1  0  0  0  0
 11 16  2  0  0  0  0
 11 17  1  0  0  0  0
 11 18  1  0  0  0  0
 12 25  1  0  0  0  0
 13 26  1  0  0  0  0
 14 16  1  0  0  0  0
 14 27  1  0  0  0  0
 15 17  2  0  0  0  0
 15 28  1  0  0  0  0
 16 29  1  0  0  0  0
 17 30  1  0  0  0  0
 18 20  1  0  0  0  0
 19 31  1  0  0  0  0
 19 32  1  0  0  0  0
 19 33  1  0  0  0  0
 20 21  1  0  0  0  0
 20 34  1  0  0  0  0
 20 35  1  0  0  0  0
 21 36  1  0  0  0  0
 21 37  1  0  0  0  0
 21 38  1  0  0  0  0
M  END
>  <$CLUSTER>
716

>  <INDEX>
90607

$$$$
