Asinex ASN 03798095
 OpenBabel04062209303D

 59 61  0  0  0  0  0  0  0  0999 V2000
    4.5300    0.8640   -0.3350 S   0  0  0  0  0  0  0  0  0  0  0  0
    4.6310    1.6840   -1.7910 N   0  0  0  0  0  0  0  0  0  0  0  0
    2.8270    0.4420   -0.2290 C   0  0  0  0  0  0  0  0  0  0  0  0
   -2.3130    0.0020    0.6070 C   0  0  0  0  0  0  0  0  0  0  0  0
   -4.0200   -0.9960   -0.9450 N   0  3  1  0  0  0  0  0  0  0  0  0
    4.8370    1.8120    0.7230 O   0  0  0  0  0  0  0  0  0  0  0  0
    5.3060   -0.3560   -0.4630 O   0  0  0  0  0  0  0  0  0  0  0  0
   -1.2330   -0.6810    0.0630 N   0  0  0  0  0  0  0  0  0  0  0  0
    4.4430    0.9030   -3.0430 C   0  0  0  0  0  0  0  0  0  0  0  0
    3.9870    3.0210   -1.8840 C   0  0  0  0  0  0  0  0  0  0  0  0
   -3.5840   -0.8020    0.4840 C   0  0  0  0  0  0  0  0  0  0  0  0
   -2.3190    1.1090    1.1340 O   0  0  0  0  0  0  0  0  0  0  0  0
    1.9250    1.3180    0.3700 C   0  0  0  0  0  0  0  0  0  0  0  0
    2.3780   -0.7810   -0.7190 C   0  0  0  0  0  0  0  0  0  0  0  0
    0.1130   -0.2500   -0.0060 C   0  0  0  0  0  0  0  0  0  0  0  0
   -5.0420   -2.0820   -1.0840 C   0  0  0  0  0  0  0  0  0  0  0  0
   -4.4860    0.2770   -1.6090 C   0  0  0  0  0  0  0  0  0  0  0  0
    1.0300   -1.1250   -0.6080 C   0  0  0  0  0  0  0  0  0  0  0  0
    0.5730    0.9760    0.4830 C   0  0  0  0  0  0  0  0  0  0  0  0
    4.4550    3.8120   -3.1010 C   0  0  0  0  0  0  0  0  0  0  0  0
    4.9190    1.6590   -4.2800 C   0  0  0  0  0  0  0  0  0  0  0  0
   -5.3620   -2.3490   -2.5500 C   0  0  0  0  0  0  0  0  0  0  0  0
   -4.7890    0.0500   -3.0690 C   0  0  0  0  0  0  0  0  0  0  0  0
    4.2550    3.0320   -4.4020 C   0  0  2  0  0  0  0  0  0  0  0  0
   -5.8200   -1.0700   -3.2620 C   0  0  1  0  0  0  0  0  0  0  0  0
    4.8060    3.8050   -5.5980 C   0  0  0  0  0  0  0  0  0  0  0  0
   -6.0700   -1.3320   -4.7470 C   0  0  0  0  0  0  0  0  0  0  0  0
   -3.1880   -1.2890   -1.4380 H   0  0  0  0  0  0  0  0  0  0  0  0
   -1.4310   -1.5910   -0.3290 H   0  0  0  0  0  0  0  0  0  0  0  0
    3.3830    0.6770   -3.1580 H   0  0  0  0  0  0  0  0  0  0  0  0
    5.0060   -0.0270   -2.9630 H   0  0  0  0  0  0  0  0  0  0  0  0
    4.2280    3.5880   -0.9850 H   0  0  0  0  0  0  0  0  0  0  0  0
    2.9070    2.8850   -1.9500 H   0  0  0  0  0  0  0  0  0  0  0  0
   -4.3770   -0.2830    1.0220 H   0  0  0  0  0  0  0  0  0  0  0  0
   -3.4210   -1.7810    0.9340 H   0  0  0  0  0  0  0  0  0  0  0  0
    2.2720    2.2680    0.7500 H   0  0  0  0  0  0  0  0  0  0  0  0
    3.0730   -1.4640   -1.1850 H   0  0  0  0  0  0  0  0  0  0  0  0
   -5.9540   -1.7800   -0.5700 H   0  0  0  0  0  0  0  0  0  0  0  0
   -4.6550   -2.9950   -0.6320 H   0  0  0  0  0  0  0  0  0  0  0  0
   -3.7040    1.0310   -1.5210 H   0  0  0  0  0  0  0  0  0  0  0  0
   -5.3880    0.6290   -1.1090 H   0  0  0  0  0  0  0  0  0  0  0  0
    0.6890   -2.0760   -0.9900 H   0  0  0  0  0  0  0  0  0  0  0  0
   -0.1180    1.6620    0.9500 H   0  0  0  0  0  0  0  0  0  0  0  0
    5.5150    4.0400   -2.9870 H   0  0  0  0  0  0  0  0  0  0  0  0
    3.8880    4.7410   -3.1570 H   0  0  0  0  0  0  0  0  0  0  0  0
    4.6780    1.0710   -5.1660 H   0  0  0  0  0  0  0  0  0  0  0  0
    5.9990    1.7940   -4.2160 H   0  0  0  0  0  0  0  0  0  0  0  0
   -6.1560   -3.0930   -2.6100 H   0  0  0  0  0  0  0  0  0  0  0  0
   -4.4690   -2.7300   -3.0450 H   0  0  0  0  0  0  0  0  0  0  0  0
   -3.8680   -0.2240   -3.5830 H   0  0  0  0  0  0  0  0  0  0  0  0
   -5.1830    0.9720   -3.4960 H   0  0  0  0  0  0  0  0  0  0  0  0
    3.1870    2.8950   -4.5710 H   0  0  0  0  0  0  0  0  0  0  0  0
   -6.7620   -0.7490   -2.8170 H   0  0  0  0  0  0  0  0  0  0  0  0
    5.8760    3.9630   -5.4660 H   0  0  0  0  0  0  0  0  0  0  0  0
    4.3030    4.7690   -5.6710 H   0  0  0  0  0  0  0  0  0  0  0  0
    4.6320    3.2350   -6.5100 H   0  0  0  0  0  0  0  0  0  0  0  0
   -5.1430   -1.6560   -5.2200 H   0  0  0  0  0  0  0  0  0  0  0  0
   -6.4200   -0.4160   -5.2240 H   0  0  0  0  0  0  0  0  0  0  0  0
   -6.8250   -2.1100   -4.8570 H   0  0  0  0  0  0  0  0  0  0  0  0
  1  2  1  0  0  0  0
  1  3  1  0  0  0  0
  1  6  2  0  0  0  0
  1  7  2  0  0  0  0
  2  9  1  0  0  0  0
  2 10  1  0  0  0  0
  3 13  1  0  0  0  0
  3 14  2  0  0  0  0
  4  8  1  0  0  0  0
  4 11  1  0  0  0  0
  4 12  2  0  0  0  0
  5 11  1  0  0  0  0
  5 16  1  0  0  0  0
  5 17  1  0  0  0  0
  5 28  1  6  0  0  0
  8 15  1  0  0  0  0
  8 29  1  0  0  0  0
  9 21  1  0  0  0  0
  9 30  1  0  0  0  0
  9 31  1  0  0  0  0
 10 20  1  0  0  0  0
 10 32  1  0  0  0  0
 10 33  1  0  0  0  0
 11 34  1  0  0  0  0
 11 35  1  0  0  0  0
 13 19  2  0  0  0  0
 13 36  1  0  0  0  0
 14 18  1  0  0  0  0
 14 37  1  0  0  0  0
 15 18  2  0  0  0  0
 15 19  1  0  0  0  0
 16 22  1  0  0  0  0
 16 38  1  0  0  0  0
 16 39  1  0  0  0  0
 17 23  1  0  0  0  0
 17 40  1  0  0  0  0
 17 41  1  0  0  0  0
 18 42  1  0  0  0  0
 19 43  1  0  0  0  0
 20 24  1  0  0  0  0
 20 44  1  0  0  0  0
 20 45  1  0  0  0  0
 21 24  1  0  0  0  0
 21 46  1  0  0  0  0
 21 47  1  0  0  0  0
 22 25  1  0  0  0  0
 22 48  1  0  0  0  0
 22 49  1  0  0  0  0
 23 25  1  0  0  0  0
 23 50  1  0  0  0  0
 23 51  1  0  0  0  0
 24 26  1  0  0  0  0
 24 52  1  6  0  0  0
 25 27  1  0  0  0  0
 25 53  1  1  0  0  0
 26 54  1  0  0  0  0
 26 55  1  0  0  0  0
 26 56  1  0  0  0  0
 27 57  1  0  0  0  0
 27 58  1  0  0  0  0
 27 59  1  0  0  0  0
M  CHG  1   5   1
M  END
>  <$CLUSTER>
206

>  <INDEX>
134924

$$$$
