Life Chemicals F1895-0070
 OpenBabel04062209303D

 46 49  0  0  0  0  0  0  0  0999 V2000
   -2.9820    2.6370   -1.2300 C   0  0  0  0  0  0  0  0  0  0  0  0
   -2.4470    1.8760   -2.2410 N   0  0  0  0  0  0  0  0  0  0  0  0
   -4.1310    2.5280   -0.6680 N   0  0  0  0  0  0  0  0  0  0  0  0
   -3.2560    0.8510   -2.7490 C   0  0  0  0  0  0  0  0  0  0  0  0
   -0.1640   -0.4950   -0.2880 C   0  0  0  0  0  0  0  0  0  0  0  0
   -4.4780    0.6910   -2.2320 C   0  0  0  0  0  0  0  0  0  0  0  0
   -0.7880   -1.6440   -0.4390 N   0  0  0  0  0  0  0  0  0  0  0  0
   -4.9730    1.5750   -1.1740 C   0  0  0  0  0  0  0  0  0  0  0  0
    1.4870   -0.4910   -0.7360 S   0  0  0  0  0  0  0  0  0  0  0  0
   -0.7950    0.6370    0.1990 N   0  0  0  0  0  0  0  0  0  0  0  0
    1.3720   -2.1440   -1.1660 C   0  0  0  0  0  0  0  0  0  0  0  0
    0.0880   -2.5860   -0.9400 C   0  0  0  0  0  0  0  0  0  0  0  0
   -1.9620    3.8840   -0.3970 S   0  0  0  0  0  0  0  0  0  0  0  0
   -1.1550    2.1100   -2.7910 C   0  0  0  0  0  0  0  0  0  0  0  0
   -0.2290    1.8900    0.3940 C   0  0  0  0  0  0  0  0  0  0  0  0
   -2.8860    0.0040   -3.7650 N   0  0  0  0  0  0  0  0  0  0  0  0
    2.3800   -2.9940   -1.6760 C   0  0  0  0  0  0  0  0  0  0  0  0
   -6.1210    1.4320   -0.7630 O   0  0  0  0  0  0  0  0  0  0  0  0
    0.9250    2.2490    0.1800 O   0  0  0  0  0  0  0  0  0  0  0  0
   -0.2360   -3.9400   -1.2300 C   0  0  0  0  0  0  0  0  0  0  0  0
   -1.2460    2.8610    0.9420 C   0  0  0  0  0  0  0  0  0  0  0  0
   -0.8850    3.2680   -3.5390 C   0  0  0  0  0  0  0  0  0  0  0  0
   -0.1120    1.1870   -2.5980 C   0  0  0  0  0  0  0  0  0  0  0  0
    2.0430   -4.3210   -1.9550 C   0  0  0  0  0  0  0  0  0  0  0  0
    1.4110    2.5810   -3.8530 C   0  0  0  0  0  0  0  0  0  0  0  0
    0.7520   -4.7900   -1.7350 C   0  0  0  0  0  0  0  0  0  0  0  0
    1.1610    1.4210   -3.1220 C   0  0  0  0  0  0  0  0  0  0  0  0
    0.3880    3.5030   -4.0640 C   0  0  0  0  0  0  0  0  0  0  0  0
    2.6530    2.7310   -4.3140 F   0  0  0  0  0  0  0  0  0  0  0  0
    3.0910   -5.2470   -2.4970 C   0  0  0  0  0  0  0  0  0  0  0  0
   -5.1110   -0.1030   -2.6000 H   0  0  0  0  0  0  0  0  0  0  0  0
   -1.7720    0.5410    0.4380 H   0  0  0  0  0  0  0  0  0  0  0  0
   -3.5280   -0.7040   -4.0920 H   0  0  0  0  0  0  0  0  0  0  0  0
   -1.9720    0.0890   -4.1850 H   0  0  0  0  0  0  0  0  0  0  0  0
    3.3820   -2.6280   -1.8450 H   0  0  0  0  0  0  0  0  0  0  0  0
   -1.2370   -4.3080   -1.0610 H   0  0  0  0  0  0  0  0  0  0  0  0
   -2.0450    2.3030    1.4310 H   0  0  0  0  0  0  0  0  0  0  0  0
   -0.7610    3.5130    1.6690 H   0  0  0  0  0  0  0  0  0  0  0  0
   -1.6730    3.9870   -3.7110 H   0  0  0  0  0  0  0  0  0  0  0  0
   -0.2980    0.2840   -2.0360 H   0  0  0  0  0  0  0  0  0  0  0  0
    0.5110   -5.8190   -1.9560 H   0  0  0  0  0  0  0  0  0  0  0  0
    1.9520    0.7030   -2.9610 H   0  0  0  0  0  0  0  0  0  0  0  0
    0.5790    4.4000   -4.6340 H   0  0  0  0  0  0  0  0  0  0  0  0
    4.0330   -4.7080   -2.6030 H   0  0  0  0  0  0  0  0  0  0  0  0
    2.7760   -5.6220   -3.4710 H   0  0  0  0  0  0  0  0  0  0  0  0
    3.2260   -6.0840   -1.8120 H   0  0  0  0  0  0  0  0  0  0  0  0
  1  2  1  0  0  0  0
  1  3  2  0  0  0  0
  1 13  1  0  0  0  0
  2  4  1  0  0  0  0
  2 14  1  0  0  0  0
  3  8  1  0  0  0  0
  4  6  2  0  0  0  0
  4 16  1  0  0  0  0
  5  7  2  0  0  0  0
  5  9  1  0  0  0  0
  5 10  1  0  0  0  0
  6  8  1  0  0  0  0
  6 31  1  0  0  0  0
  7 12  1  0  0  0  0
  8 18  2  0  0  0  0
  9 11  1  0  0  0  0
 10 15  1  0  0  0  0
 10 32  1  0  0  0  0
 11 12  2  0  0  0  0
 11 17  1  0  0  0  0
 12 20  1  0  0  0  0
 13 21  1  0  0  0  0
 14 22  1  0  0  0  0
 14 23  2  0  0  0  0
 15 19  2  0  0  0  0
 15 21  1  0  0  0  0
 16 33  1  0  0  0  0
 16 34  1  0  0  0  0
 17 24  2  0  0  0  0
 17 35  1  0  0  0  0
 20 26  2  0  0  0  0
 20 36  1  0  0  0  0
 21 37  1  0  0  0  0
 21 38  1  0  0  0  0
 22 28  2  0  0  0  0
 22 39  1  0  0  0  0
 23 27  1  0  0  0  0
 23 40  1  0  0  0  0
 24 26  1  0  0  0  0
 24 30  1  0  0  0  0
 25 27  2  0  0  0  0
 25 28  1  0  0  0  0
 25 29  1  0  0  0  0
 26 41  1  0  0  0  0
 27 42  1  0  0  0  0
 28 43  1  0  0  0  0
 30 44  1  0  0  0  0
 30 45  1  0  0  0  0
 30 46  1  0  0  0  0
M  END
>  <$CLUSTER>
462

>  <INDEX>
302198

$$$$
