Asinex BAS 05101595
 OpenBabel04062209303D

 54 57  0  0  0  0  0  0  0  0999 V2000
   -1.8820   -1.8890    1.0830 C   0  0  0  0  0  0  0  0  0  0  0  0
   -3.3590   -2.2170    1.1880 C   0  0  0  0  0  0  0  0  0  0  0  0
   -3.6680   -3.4370    1.7430 N   0  0  0  0  0  0  0  0  0  0  0  0
   -0.1690   -0.2630    0.3560 N   0  0  0  0  0  0  0  0  0  0  0  0
   -1.0140   -2.7930    1.5320 C   0  0  0  0  0  0  0  0  0  0  0  0
    0.4990   -0.6360   -0.8140 C   0  0  0  0  0  0  0  0  0  0  0  0
   -2.7360   -4.3370    2.1890 C   0  0  0  0  0  0  0  0  0  0  0  0
   -1.6070   -0.5280    0.4630 C   0  0  0  0  0  0  0  0  0  0  0  0
   -1.4320   -4.0550    2.1010 C   0  0  0  0  0  0  0  0  0  0  0  0
    1.9740   -0.3260   -0.8850 C   0  0  0  0  0  0  0  0  0  0  0  0
    0.4730    0.3810    1.5100 C   0  0  0  0  0  0  0  0  0  0  0  0
   -4.2220   -1.4340    0.7990 O   0  0  0  0  0  0  0  0  0  0  0  0
   -0.0460   -1.2030   -1.7650 O   0  0  0  0  0  0  0  0  0  0  0  0
   -3.1630   -5.5810    2.7510 C   0  0  0  0  0  0  0  0  0  0  0  0
   -0.4370   -4.9720    2.5570 C   0  0  0  0  0  0  0  0  0  0  0  0
    2.5400   -0.1760   -2.1410 C   0  0  0  0  0  0  0  0  0  0  0  0
    2.7390   -0.2020    0.2700 C   0  0  0  0  0  0  0  0  0  0  0  0
   -2.2090   -6.4910    3.2020 C   0  0  0  0  0  0  0  0  0  0  0  0
    0.3430    1.8960    1.4590 C   0  0  0  0  0  0  0  0  0  0  0  0
   -0.8500   -6.1880    3.1070 C   0  0  0  0  0  0  0  0  0  0  0  0
    3.9020    0.1130   -2.2510 C   0  0  0  0  0  0  0  0  0  0  0  0
    4.1010    0.0870    0.1540 C   0  0  0  0  0  0  0  0  0  0  0  0
    4.6810    0.2460   -1.1030 C   0  0  0  0  0  0  0  0  0  0  0  0
   -2.6440   -7.7950    3.7890 C   0  0  0  0  0  0  0  0  0  0  0  0
    6.1370    0.5600   -1.2230 C   0  0  0  0  0  0  0  0  0  0  0  0
   -0.6480    2.5480    2.2030 C   0  0  0  0  0  0  0  0  0  0  0  0
    1.2020    2.6510    0.6480 C   0  0  0  0  0  0  0  0  0  0  0  0
   -0.7610    3.9410    2.1570 C   0  0  0  0  0  0  0  0  0  0  0  0
    1.0880    4.0420    0.6040 C   0  0  0  0  0  0  0  0  0  0  0  0
    0.1080    4.6870    1.3600 C   0  0  0  0  0  0  0  0  0  0  0  0
   -4.6430   -3.6850    1.8270 H   0  0  0  0  0  0  0  0  0  0  0  0
    0.0420   -2.5760    1.4690 H   0  0  0  0  0  0  0  0  0  0  0  0
   -2.0630    0.2420    1.0850 H   0  0  0  0  0  0  0  0  0  0  0  0
   -2.0470   -0.4980   -0.5340 H   0  0  0  0  0  0  0  0  0  0  0  0
    1.5310    0.1180    1.5170 H   0  0  0  0  0  0  0  0  0  0  0  0
    0.0020    0.0170    2.4230 H   0  0  0  0  0  0  0  0  0  0  0  0
   -4.2150   -5.8130    2.8250 H   0  0  0  0  0  0  0  0  0  0  0  0
    0.6130   -4.7310    2.4780 H   0  0  0  0  0  0  0  0  0  0  0  0
    1.9330   -0.2820   -3.0280 H   0  0  0  0  0  0  0  0  0  0  0  0
    2.2870   -0.3270    1.2430 H   0  0  0  0  0  0  0  0  0  0  0  0
   -0.1150   -6.8960    3.4600 H   0  0  0  0  0  0  0  0  0  0  0  0
    4.3520    0.2330   -3.2260 H   0  0  0  0  0  0  0  0  0  0  0  0
    4.7070    0.1880    1.0420 H   0  0  0  0  0  0  0  0  0  0  0  0
   -3.7320   -7.8530    3.7800 H   0  0  0  0  0  0  0  0  0  0  0  0
   -2.2850   -7.8690    4.8150 H   0  0  0  0  0  0  0  0  0  0  0  0
   -2.2320   -8.6140    3.2000 H   0  0  0  0  0  0  0  0  0  0  0  0
    6.4040    0.6470   -2.2760 H   0  0  0  0  0  0  0  0  0  0  0  0
    6.7200   -0.2390   -0.7650 H   0  0  0  0  0  0  0  0  0  0  0  0
    6.3490    1.5010   -0.7160 H   0  0  0  0  0  0  0  0  0  0  0  0
   -1.3270    1.9730    2.8150 H   0  0  0  0  0  0  0  0  0  0  0  0
    1.9550    2.1540    0.0550 H   0  0  0  0  0  0  0  0  0  0  0  0
   -1.5220    4.4400    2.7390 H   0  0  0  0  0  0  0  0  0  0  0  0
    1.7590    4.6190   -0.0150 H   0  0  0  0  0  0  0  0  0  0  0  0
    0.0220    5.7630    1.3280 H   0  0  0  0  0  0  0  0  0  0  0  0
  1  2  1  0  0  0  0
  1  5  2  0  0  0  0
  1  8  1  0  0  0  0
  2  3  1  0  0  0  0
  2 12  2  0  0  0  0
  3  7  1  0  0  0  0
  3 31  1  0  0  0  0
  4  6  1  0  0  0  0
  4  8  1  0  0  0  0
  4 11  1  0  0  0  0
  5  9  1  0  0  0  0
  5 32  1  0  0  0  0
  6 10  1  0  0  0  0
  6 13  2  0  0  0  0
  7  9  2  0  0  0  0
  7 14  1  0  0  0  0
  8 33  1  0  0  0  0
  8 34  1  0  0  0  0
  9 15  1  0  0  0  0
 10 16  2  0  0  0  0
 10 17  1  0  0  0  0
 11 19  1  0  0  0  0
 11 35  1  0  0  0  0
 11 36  1  0  0  0  0
 14 18  2  0  0  0  0
 14 37  1  0  0  0  0
 15 20  2  0  0  0  0
 15 38  1  0  0  0  0
 16 21  1  0  0  0  0
 16 39  1  0  0  0  0
 17 22  2  0  0  0  0
 17 40  1  0  0  0  0
 18 20  1  0  0  0  0
 18 24  1  0  0  0  0
 19 26  2  0  0  0  0
 19 27  1  0  0  0  0
 20 41  1  0  0  0  0
 21 23  2  0  0  0  0
 21 42  1  0  0  0  0
 22 23  1  0  0  0  0
 22 43  1  0  0  0  0
 23 25  1  0  0  0  0
 24 44  1  0  0  0  0
 24 45  1  0  0  0  0
 24 46  1  0  0  0  0
 25 47  1  0  0  0  0
 25 48  1  0  0  0  0
 25 49  1  0  0  0  0
 26 28  1  0  0  0  0
 26 50  1  0  0  0  0
 27 29  2  0  0  0  0
 27 51  1  0  0  0  0
 28 30  2  0  0  0  0
 28 52  1  0  0  0  0
 29 30  1  0  0  0  0
 29 53  1  0  0  0  0
 30 54  1  0  0  0  0
M  END
>  <$CLUSTER>
222

>  <INDEX>
181503

$$$$
