InterBioScreen STOCK4S-15128
 OpenBabel04062209303D

 53 56  0  0  0  0  0  0  0  0999 V2000
   -0.1040   -0.1850   -1.0940 C   0  0  0  0  0  0  0  0  0  0  0  0
   -1.0110    0.7150   -1.6330 C   0  0  0  0  0  0  0  0  0  0  0  0
    0.3090   -0.8200   -3.3400 N   0  0  0  0  0  0  0  0  0  0  0  0
   -0.6240    0.1240   -3.7420 C   0  0  0  0  0  0  0  0  0  0  0  0
   -1.2980    0.9000   -2.9530 N   0  0  0  0  0  0  0  0  0  0  0  0
    0.6370   -1.0480   -2.0050 C   0  0  0  0  0  0  0  0  0  0  0  0
   -0.0520   -0.1100    0.3300 C   0  0  0  0  0  0  0  0  0  0  0  0
   -1.7930    1.6290   -0.4180 S   0  0  0  0  0  0  0  0  0  0  0  0
   -0.9360    0.8320    0.8140 C   0  0  0  0  0  0  0  0  0  0  0  0
   -0.8520    0.5270   -5.4610 S   0  0  0  0  0  0  0  0  0  0  0  0
    0.9060   -1.7510   -4.3430 C   0  0  0  0  0  0  0  0  0  0  0  0
    0.7820   -0.9160    1.2740 C   0  0  0  0  0  0  0  0  0  0  0  0
   -0.5190    0.1400    3.0630 O   0  0  0  0  0  0  0  0  0  0  0  0
    1.4560   -1.8830   -1.6360 O   0  0  0  0  0  0  0  0  0  0  0  0
    0.8110   -0.2750    2.6860 C   0  0  0  0  0  0  0  0  0  0  0  0
   -1.1130    1.1700    2.2540 C   0  0  0  0  0  0  0  0  0  0  0  0
   -2.9000    2.1550   -4.5980 C   0  0  0  0  0  0  0  0  0  0  0  0
   -2.5850    3.2970   -4.9280 O   0  0  0  0  0  0  0  0  0  0  0  0
   -2.6150    0.9240   -5.4480 C   0  0  0  0  0  0  0  0  0  0  0  0
    0.1240   -2.4990   -5.2380 C   0  0  0  0  0  0  0  0  0  0  0  0
    2.2980   -1.9310   -4.3510 C   0  0  0  0  0  0  0  0  0  0  0  0
   -3.5170    1.8940   -3.4160 N   0  0  0  0  0  0  0  0  0  0  0  0
    2.1100   -3.5320   -6.1510 C   0  0  0  0  0  0  0  0  0  0  0  0
    0.7250   -3.3800   -6.1400 C   0  0  0  0  0  0  0  0  0  0  0  0
    2.8950   -2.8110   -5.2560 C   0  0  0  0  0  0  0  0  0  0  0  0
    2.8140   -4.3710   -6.9830 O   0  0  0  0  0  0  0  0  0  0  0  0
    1.8080    0.8920    2.7720 C   0  0  0  0  0  0  0  0  0  0  0  0
    1.2230   -1.3400    3.7130 C   0  0  0  0  0  0  0  0  0  0  0  0
    2.0610   -5.1410   -7.9210 C   0  0  0  0  0  0  0  0  0  0  0  0
    3.0370   -5.9790   -8.7260 C   0  0  0  0  0  0  0  0  0  0  0  0
    1.8000   -0.9730    0.8890 H   0  0  0  0  0  0  0  0  0  0  0  0
    0.3650   -1.9200    1.3480 H   0  0  0  0  0  0  0  0  0  0  0  0
   -2.1760    1.2440    2.4820 H   0  0  0  0  0  0  0  0  0  0  0  0
   -0.6290    2.1230    2.4660 H   0  0  0  0  0  0  0  0  0  0  0  0
   -3.1670    0.0760   -5.0410 H   0  0  0  0  0  0  0  0  0  0  0  0
   -2.9430    1.1150   -6.4700 H   0  0  0  0  0  0  0  0  0  0  0  0
   -0.9510   -2.3920   -5.2290 H   0  0  0  0  0  0  0  0  0  0  0  0
    2.9130   -1.3840   -3.6510 H   0  0  0  0  0  0  0  0  0  0  0  0
   -3.7300    2.6490   -2.7800 H   0  0  0  0  0  0  0  0  0  0  0  0
   -3.7630    0.9450   -3.1740 H   0  0  0  0  0  0  0  0  0  0  0  0
    0.1150   -3.9440   -6.8300 H   0  0  0  0  0  0  0  0  0  0  0  0
    3.9680   -2.9320   -5.2610 H   0  0  0  0  0  0  0  0  0  0  0  0
    1.5320    1.6600    2.0490 H   0  0  0  0  0  0  0  0  0  0  0  0
    2.8120    0.5290    2.5510 H   0  0  0  0  0  0  0  0  0  0  0  0
    1.7870    1.3140    3.7770 H   0  0  0  0  0  0  0  0  0  0  0  0
    0.5270   -2.1770    3.6670 H   0  0  0  0  0  0  0  0  0  0  0  0
    1.2050   -0.9070    4.7130 H   0  0  0  0  0  0  0  0  0  0  0  0
    2.2300   -1.6920    3.4880 H   0  0  0  0  0  0  0  0  0  0  0  0
    1.5070   -4.4770   -8.5850 H   0  0  0  0  0  0  0  0  0  0  0  0
    1.3640   -5.7910   -7.3920 H   0  0  0  0  0  0  0  0  0  0  0  0
    3.7310   -5.3230   -9.2520 H   0  0  0  0  0  0  0  0  0  0  0  0
    2.4880   -6.5820   -9.4490 H   0  0  0  0  0  0  0  0  0  0  0  0
    3.5930   -6.6340   -8.0550 H   0  0  0  0  0  0  0  0  0  0  0  0
  1  2  2  0  0  0  0
  1  6  1  0  0  0  0
  1  7  1  0  0  0  0
  2  5  1  0  0  0  0
  2  8  1  0  0  0  0
  3  4  1  0  0  0  0
  3  6  1  0  0  0  0
  3 11  1  0  0  0  0
  4  5  2  0  0  0  0
  4 10  1  0  0  0  0
  6 14  2  0  0  0  0
  7  9  2  0  0  0  0
  7 12  1  0  0  0  0
  8  9  1  0  0  0  0
  9 16  1  0  0  0  0
 10 19  1  0  0  0  0
 11 20  2  0  0  0  0
 11 21  1  0  0  0  0
 12 15  1  0  0  0  0
 12 31  1  0  0  0  0
 12 32  1  0  0  0  0
 13 15  1  0  0  0  0
 13 16  1  0  0  0  0
 15 27  1  0  0  0  0
 15 28  1  0  0  0  0
 16 33  1  0  0  0  0
 16 34  1  0  0  0  0
 17 18  2  0  0  0  0
 17 19  1  0  0  0  0
 17 22  1  0  0  0  0
 19 35  1  0  0  0  0
 19 36  1  0  0  0  0
 20 24  1  0  0  0  0
 20 37  1  0  0  0  0
 21 25  2  0  0  0  0
 21 38  1  0  0  0  0
 22 39  1  0  0  0  0
 22 40  1  0  0  0  0
 23 24  2  0  0  0  0
 23 25  1  0  0  0  0
 23 26  1  0  0  0  0
 24 41  1  0  0  0  0
 25 42  1  0  0  0  0
 26 29  1  0  0  0  0
 27 43  1  0  0  0  0
 27 44  1  0  0  0  0
 27 45  1  0  0  0  0
 28 46  1  0  0  0  0
 28 47  1  0  0  0  0
 28 48  1  0  0  0  0
 29 30  1  0  0  0  0
 29 49  1  0  0  0  0
 29 50  1  0  0  0  0
 30 51  1  0  0  0  0
 30 52  1  0  0  0  0
 30 53  1  0  0  0  0
M  END
>  <$CLUSTER>
515

>  <INDEX>
350677

$$$$
