Asinex ASN 05588575
 OpenBabel04062209303D

 48 51  0  0  0  0  0  0  0  0999 V2000
    1.0060    0.3720   -0.2680 N   0  0  0  0  0  0  0  0  0  0  0  0
    2.5930   -0.4890   -4.6220 C   0  0  0  0  0  0  0  0  0  0  0  0
    2.6150   -0.1010   -3.2690 C   0  0  0  0  0  0  0  0  0  0  0  0
    1.9100   -0.7580   -2.3170 N   0  0  0  0  0  0  0  0  0  0  0  0
   -0.3740   -1.7900    1.0050 N   0  0  0  0  0  0  0  0  0  0  0  0
   -0.4290    0.3330   -0.2160 C   0  0  0  0  0  0  0  0  0  0  0  0
    1.7330    1.5030   -0.6750 C   0  0  0  0  0  0  0  0  0  0  0  0
    0.9800   -1.9070    0.9570 C   0  0  0  0  0  0  0  0  0  0  0  0
   -1.0830   -0.7420    0.4170 C   0  0  0  0  0  0  0  0  0  0  0  0
    3.3350    0.2000   -5.6350 C   0  0  0  0  0  0  0  0  0  0  0  0
    1.7150   -0.8600    0.1320 C   0  0  0  0  0  0  0  0  0  0  0  0
    1.0870   -2.2740   -4.0080 C   0  0  0  0  0  0  0  0  0  0  0  0
    1.1660   -1.8230   -2.7000 C   0  0  0  0  0  0  0  0  0  0  0  0
    1.8130   -1.5950   -4.9830 C   0  0  0  0  0  0  0  0  0  0  0  0
    3.9270    0.7420   -6.4780 N   0  0  0  0  0  0  0  0  0  0  0  0
    3.5990    1.3220   -2.7140 S   0  0  0  0  0  0  0  0  0  0  0  0
    3.2140    1.2970   -0.9350 C   0  0  0  0  0  0  0  0  0  0  0  0
    0.2970   -3.3860   -4.3510 C   0  0  0  0  0  0  0  0  0  0  0  0
    1.5670   -2.8540    1.4800 O   0  0  0  0  0  0  0  0  0  0  0  0
    1.2740    2.6360   -0.8140 O   0  0  0  0  0  0  0  0  0  0  0  0
    0.4270   -2.5160   -1.7130 C   0  0  0  0  0  0  0  0  0  0  0  0
   -0.4250   -4.0570   -3.3650 C   0  0  0  0  0  0  0  0  0  0  0  0
   -0.3600   -3.6210   -2.0450 C   0  0  0  0  0  0  0  0  0  0  0  0
   -1.2360    1.3270   -0.7940 C   0  0  0  0  0  0  0  0  0  0  0  0
   -1.1560   -5.1230   -3.8200 O   0  0  0  0  0  0  0  0  0  0  0  0
   -2.4810   -0.7960    0.4980 C   0  0  0  0  0  0  0  0  0  0  0  0
   -1.9160   -5.8470   -2.8530 C   0  0  0  0  0  0  0  0  0  0  0  0
   -2.6310    1.2690   -0.7200 C   0  0  0  0  0  0  0  0  0  0  0  0
   -3.2540    0.2110   -0.0690 C   0  0  0  0  0  0  0  0  0  0  0  0
   -2.6390   -6.9720   -3.5740 C   0  0  0  0  0  0  0  0  0  0  0  0
   -0.8960   -2.5030    1.4940 H   0  0  0  0  0  0  0  0  0  0  0  0
    2.5860   -0.5520    0.7110 H   0  0  0  0  0  0  0  0  0  0  0  0
    2.0430   -1.3500   -0.7850 H   0  0  0  0  0  0  0  0  0  0  0  0
    1.7750   -1.9190   -6.0120 H   0  0  0  0  0  0  0  0  0  0  0  0
    3.5140    0.3330   -0.5230 H   0  0  0  0  0  0  0  0  0  0  0  0
    3.7730    2.0930   -0.4420 H   0  0  0  0  0  0  0  0  0  0  0  0
    0.2500   -3.7200   -5.3770 H   0  0  0  0  0  0  0  0  0  0  0  0
    0.4720   -2.1850   -0.6860 H   0  0  0  0  0  0  0  0  0  0  0  0
   -0.9180   -4.1370   -1.2780 H   0  0  0  0  0  0  0  0  0  0  0  0
   -0.7680    2.1540   -1.3070 H   0  0  0  0  0  0  0  0  0  0  0  0
   -2.9590   -1.6220    1.0020 H   0  0  0  0  0  0  0  0  0  0  0  0
   -2.6410   -5.1840   -2.3800 H   0  0  0  0  0  0  0  0  0  0  0  0
   -1.2520   -6.2600   -2.0940 H   0  0  0  0  0  0  0  0  0  0  0  0
   -3.2270    2.0490   -1.1700 H   0  0  0  0  0  0  0  0  0  0  0  0
   -4.3310    0.1710   -0.0040 H   0  0  0  0  0  0  0  0  0  0  0  0
   -3.3010   -6.5520   -4.3310 H   0  0  0  0  0  0  0  0  0  0  0  0
   -3.2260   -7.5460   -2.8560 H   0  0  0  0  0  0  0  0  0  0  0  0
   -1.9090   -7.6260   -4.0520 H   0  0  0  0  0  0  0  0  0  0  0  0
  1  6  1  0  0  0  0
  1  7  1  0  0  0  0
  1 11  1  0  0  0  0
  2  3  1  0  0  0  0
  2 10  1  0  0  0  0
  2 14  2  0  0  0  0
  3  4  2  0  0  0  0
  3 16  1  0  0  0  0
  4 13  1  0  0  0  0
  5  8  1  0  0  0  0
  5  9  1  0  0  0  0
  5 31  1  0  0  0  0
  6  9  2  0  0  0  0
  6 24  1  0  0  0  0
  7 17  1  0  0  0  0
  7 20  2  0  0  0  0
  8 11  1  0  0  0  0
  8 19  2  0  0  0  0
  9 26  1  0  0  0  0
 10 15  3  0  0  0  0
 11 32  1  0  0  0  0
 11 33  1  0  0  0  0
 12 13  2  0  0  0  0
 12 14  1  0  0  0  0
 12 18  1  0  0  0  0
 13 21  1  0  0  0  0
 14 34  1  0  0  0  0
 16 17  1  0  0  0  0
 17 35  1  0  0  0  0
 17 36  1  0  0  0  0
 18 22  2  0  0  0  0
 18 37  1  0  0  0  0
 21 23  2  0  0  0  0
 21 38  1  0  0  0  0
 22 23  1  0  0  0  0
 22 25  1  0  0  0  0
 23 39  1  0  0  0  0
 24 28  2  0  0  0  0
 24 40  1  0  0  0  0
 25 27  1  0  0  0  0
 26 29  2  0  0  0  0
 26 41  1  0  0  0  0
 27 30  1  0  0  0  0
 27 42  1  0  0  0  0
 27 43  1  0  0  0  0
 28 29  1  0  0  0  0
 28 44  1  0  0  0  0
 29 45  1  0  0  0  0
 30 46  1  0  0  0  0
 30 47  1  0  0  0  0
 30 48  1  0  0  0  0
M  END
>  <$CLUSTER>
232

>  <INDEX>
149658

$$$$
