Biofocus 170_4347_0164
 OpenBabel04062209303D

 37 39  0  0  0  0  0  0  0  0999 V2000
   -0.8580    0.8040   -0.4500 N   0  0  0  0  0  0  0  0  0  0  0  0
   -0.1410    1.0000   -1.6590 C   0  0  0  0  0  0  0  0  0  0  0  0
   -0.2660   -0.2510    0.2640 C   0  0  0  0  0  0  0  0  0  0  0  0
    0.8960    0.0300   -1.6510 N   0  0  0  0  0  0  0  0  0  0  0  0
    0.8050   -0.7200   -0.4760 C   0  0  0  0  0  0  0  0  0  0  0  0
   -0.6170   -0.7630    1.4500 N   0  0  0  0  0  0  0  0  0  0  0  0
    1.5920   -1.7270   -0.0830 N   0  0  0  0  0  0  0  0  0  0  0  0
    0.1700   -1.7830    1.8620 C   0  0  0  0  0  0  0  0  0  0  0  0
   -0.2040   -2.3840    3.2050 C   0  0  0  0  0  0  0  0  0  0  0  0
    0.3810   -3.5020    5.3010 C   0  0  0  0  0  0  0  0  0  0  0  0
    0.7540   -2.9500    4.0720 C   0  0  0  0  0  0  0  0  0  0  0  0
   -0.3560    1.8270   -2.5330 O   0  0  0  0  0  0  0  0  0  0  0  0
    1.2460   -2.2530    1.1150 C   0  0  0  0  0  0  0  0  0  0  0  0
   -0.9530   -3.4970    5.6950 C   0  0  0  0  0  0  0  0  0  0  0  0
   -1.5470   -2.3850    3.6340 C   0  0  0  0  0  0  0  0  0  0  0  0
   -2.0040    1.5540    0.0110 C   0  0  0  0  0  0  0  0  0  0  0  0
   -1.9190   -2.9360    4.8620 C   0  0  0  0  0  0  0  0  0  0  0  0
    1.5570   -4.1850    6.3280 Cl  0  0  0  0  0  0  0  0  0  0  0  0
   -1.2230   -4.0460    6.8800 F   0  0  0  0  0  0  0  0  0  0  0  0
   -1.6060    2.6640    0.9690 C   0  0  0  0  0  0  0  0  0  0  0  0
   -2.3580    4.4630    2.3540 O   0  0  0  0  0  0  0  0  0  0  0  0
   -2.8040    3.4490    1.4670 C   0  0  0  0  0  0  0  0  0  0  0  0
   -3.4330    5.2390    2.8590 C   0  0  0  0  0  0  0  0  0  0  0  0
    1.5870   -0.0970   -2.3770 H   0  0  0  0  0  0  0  0  0  0  0  0
    1.7940   -2.9570    3.7810 H   0  0  0  0  0  0  0  0  0  0  0  0
    1.8300   -3.0720    1.5080 H   0  0  0  0  0  0  0  0  0  0  0  0
   -2.3050   -1.9500    2.9990 H   0  0  0  0  0  0  0  0  0  0  0  0
   -2.6870    0.8750    0.5220 H   0  0  0  0  0  0  0  0  0  0  0  0
   -2.5060    1.9950   -0.8500 H   0  0  0  0  0  0  0  0  0  0  0  0
   -2.9550   -2.9270    5.1660 H   0  0  0  0  0  0  0  0  0  0  0  0
   -0.9290    3.3460    0.4540 H   0  0  0  0  0  0  0  0  0  0  0  0
   -1.0950    2.2230    1.8250 H   0  0  0  0  0  0  0  0  0  0  0  0
   -3.4870    2.7800    1.9910 H   0  0  0  0  0  0  0  0  0  0  0  0
   -3.3190    3.9040    0.6210 H   0  0  0  0  0  0  0  0  0  0  0  0
   -3.0450    6.0020    3.5330 H   0  0  0  0  0  0  0  0  0  0  0  0
   -4.1240    4.5930    3.4010 H   0  0  0  0  0  0  0  0  0  0  0  0
   -3.9560    5.7180    2.0310 H   0  0  0  0  0  0  0  0  0  0  0  0
  1  2  1  0  0  0  0
  1  3  1  0  0  0  0
  1 16  1  0  0  0  0
  2  4  1  0  0  0  0
  2 12  2  0  0  0  0
  3  5  2  0  0  0  0
  3  6  1  0  0  0  0
  4  5  1  0  0  0  0
  4 24  1  0  0  0  0
  5  7  1  0  0  0  0
  6  8  2  0  0  0  0
  7 13  2  0  0  0  0
  8  9  1  0  0  0  0
  8 13  1  0  0  0  0
  9 11  2  0  0  0  0
  9 15  1  0  0  0  0
 10 11  1  0  0  0  0
 10 14  2  0  0  0  0
 10 18  1  0  0  0  0
 11 25  1  0  0  0  0
 13 26  1  0  0  0  0
 14 17  1  0  0  0  0
 14 19  1  0  0  0  0
 15 17  2  0  0  0  0
 15 27  1  0  0  0  0
 16 20  1  0  0  0  0
 16 28  1  0  0  0  0
 16 29  1  0  0  0  0
 17 30  1  0  0  0  0
 20 22  1  0  0  0  0
 20 31  1  0  0  0  0
 20 32  1  0  0  0  0
 21 22  1  0  0  0  0
 21 23  1  0  0  0  0
 22 33  1  0  0  0  0
 22 34  1  0  0  0  0
 23 35  1  0  0  0  0
 23 36  1  0  0  0  0
 23 37  1  0  0  0  0
M  END
>  <$CLUSTER>
28

>  <INDEX>
15736

$$$$
