InterBioScreen STOCK5S-06824
 OpenBabel04062209303D

 40 42  0  0  0  0  0  0  0  0999 V2000
   -1.4060    1.5510    0.3550 N   0  0  0  0  0  0  0  0  0  0  0  0
   -0.9890    0.3810   -0.2400 C   0  0  0  0  0  0  0  0  0  0  0  0
   -1.9230   -0.2030   -1.0100 N   0  0  0  0  0  0  0  0  0  0  0  0
   -2.6340    1.6610   -0.0820 C   0  0  0  0  0  0  0  0  0  0  0  0
   -3.0190    0.6540   -0.9020 O   0  0  0  0  0  0  0  0  0  0  0  0
    0.3530   -0.1430   -0.0280 C   0  0  0  0  0  0  0  0  0  0  0  0
   -4.6130    4.9220   -0.5800 C   0  0  0  0  0  0  0  0  0  0  0  0
   -4.5710    5.9120   -1.5320 N   0  0  0  0  0  0  0  0  0  0  0  0
   -5.3330    7.0920   -1.6530 C   0  0  0  0  0  0  0  0  0  0  0  0
   -5.3750    4.9180    0.3750 O   0  0  0  0  0  0  0  0  0  0  0  0
    1.2610    0.5390    0.7970 C   0  0  0  0  0  0  0  0  0  0  0  0
    0.7650   -1.3360   -0.6400 C   0  0  0  0  0  0  0  0  0  0  0  0
   -3.6310    2.7220    0.1980 C   0  0  0  0  0  0  0  0  0  0  0  0
   -3.5880    3.8170   -0.8550 C   0  0  0  0  0  0  0  0  0  0  0  0
   -6.3280    7.4510   -0.7390 C   0  0  0  0  0  0  0  0  0  0  0  0
    2.9460   -1.1470    0.3890 C   0  0  0  0  0  0  0  0  0  0  0  0
    2.5490    0.0390    1.0020 C   0  0  0  0  0  0  0  0  0  0  0  0
    2.0550   -1.8340   -0.4320 C   0  0  0  0  0  0  0  0  0  0  0  0
    4.5180   -1.7430    0.6510 Cl  0  0  0  0  0  0  0  0  0  0  0  0
   -7.0510    8.6370   -0.9120 C   0  0  0  0  0  0  0  0  0  0  0  0
   -5.8010    9.1210   -2.9130 C   0  0  0  0  0  0  0  0  0  0  0  0
   -5.0770    7.9390   -2.7420 C   0  0  0  0  0  0  0  0  0  0  0  0
   -6.7890    9.4690   -1.9970 C   0  0  0  0  0  0  0  0  0  0  0  0
   -8.1130    9.0110    0.0740 C   0  0  0  0  0  0  0  0  0  0  0  0
   -3.8860    5.7720   -2.2610 H   0  0  0  0  0  0  0  0  0  0  0  0
    0.9610    1.4590    1.2780 H   0  0  0  0  0  0  0  0  0  0  0  0
    0.0800   -1.8750   -1.2780 H   0  0  0  0  0  0  0  0  0  0  0  0
   -3.4180    3.1600    1.1730 H   0  0  0  0  0  0  0  0  0  0  0  0
   -4.6270    2.2790    0.2080 H   0  0  0  0  0  0  0  0  0  0  0  0
   -2.5910    4.2570   -0.8640 H   0  0  0  0  0  0  0  0  0  0  0  0
   -3.7990    3.3760   -1.8290 H   0  0  0  0  0  0  0  0  0  0  0  0
   -6.5400    6.8100    0.1040 H   0  0  0  0  0  0  0  0  0  0  0  0
    3.2390    0.5740    1.6380 H   0  0  0  0  0  0  0  0  0  0  0  0
    2.3610   -2.7530   -0.9090 H   0  0  0  0  0  0  0  0  0  0  0  0
   -5.5940    9.7640   -3.7550 H   0  0  0  0  0  0  0  0  0  0  0  0
   -4.3110    7.6740   -3.4560 H   0  0  0  0  0  0  0  0  0  0  0  0
   -7.3510   10.3820   -2.1270 H   0  0  0  0  0  0  0  0  0  0  0  0
   -8.1750    8.2460    0.8480 H   0  0  0  0  0  0  0  0  0  0  0  0
   -9.0720    9.0890   -0.4370 H   0  0  0  0  0  0  0  0  0  0  0  0
   -7.8650    9.9700    0.5290 H   0  0  0  0  0  0  0  0  0  0  0  0
  1  2  1  0  0  0  0
  1  4  2  0  0  0  0
  2  3  2  0  0  0  0
  2  6  1  0  0  0  0
  3  5  1  0  0  0  0
  4  5  1  0  0  0  0
  4 13  1  0  0  0  0
  6 11  2  0  0  0  0
  6 12  1  0  0  0  0
  7  8  1  0  0  0  0
  7 10  2  0  0  0  0
  7 14  1  0  0  0  0
  8  9  1  0  0  0  0
  8 25  1  0  0  0  0
  9 15  2  0  0  0  0
  9 22  1  0  0  0  0
 11 17  1  0  0  0  0
 11 26  1  0  0  0  0
 12 18  2  0  0  0  0
 12 27  1  0  0  0  0
 13 14  1  0  0  0  0
 13 28  1  0  0  0  0
 13 29  1  0  0  0  0
 14 30  1  0  0  0  0
 14 31  1  0  0  0  0
 15 20  1  0  0  0  0
 15 32  1  0  0  0  0
 16 17  2  0  0  0  0
 16 18  1  0  0  0  0
 16 19  1  0  0  0  0
 17 33  1  0  0  0  0
 18 34  1  0  0  0  0
 20 23  2  0  0  0  0
 20 24  1  0  0  0  0
 21 22  2  0  0  0  0
 21 23  1  0  0  0  0
 21 35  1  0  0  0  0
 22 36  1  0  0  0  0
 23 37  1  0  0  0  0
 24 38  1  0  0  0  0
 24 39  1  0  0  0  0
 24 40  1  0  0  0  0
M  END
>  <$CLUSTER>
559

>  <INDEX>
365293

$$$$
