Specs AA-504/36954121
 OpenBabel04062209303D

 45 48  0  0  0  0  0  0  0  0999 V2000
    0.0630   -0.0440   -0.5090 C   0  0  0  0  0  0  0  0  0  0  0  0
    0.2820    0.1430   -2.1920 S   0  0  0  0  0  0  0  0  0  0  0  0
   -0.0030    1.1300    0.2030 N   0  0  0  0  0  0  0  0  0  0  0  0
   -0.0180   -1.2860   -0.0900 N   0  0  0  0  0  0  0  0  0  0  0  0
    0.0960   -2.1840   -1.1370 N   0  0  0  0  0  0  0  0  0  0  0  0
    0.2580   -1.5700   -2.2900 C   0  0  0  0  0  0  0  0  0  0  0  0
   -0.1790    1.1300    1.5770 C   0  0  0  0  0  0  0  0  0  0  0  0
   -0.2140    2.5310    2.1320 C   0  0  0  0  0  0  0  0  0  0  0  0
    3.5970   -3.1840   -5.2080 C   0  0  0  0  0  0  0  0  0  0  0  0
   -0.2850    0.1500    2.3080 O   0  0  0  0  0  0  0  0  0  0  0  0
    1.8020   -2.4190   -3.8350 O   0  0  0  0  0  0  0  0  0  0  0  0
    2.1970   -3.0490   -5.0090 C   0  0  0  0  0  0  0  0  0  0  0  0
    0.4100   -2.2670   -3.6010 C   0  0  0  0  0  0  0  0  0  0  0  0
   -0.6290    3.6370    1.4330 C   0  0  0  0  0  0  0  0  0  0  0  0
    0.1450    2.6630    3.5070 C   0  0  0  0  0  0  0  0  0  0  0  0
    4.0670   -3.8170   -6.3870 C   0  0  0  0  0  0  0  0  0  0  0  0
   -0.2870    5.0370    3.3770 C   0  0  0  0  0  0  0  0  0  0  0  0
    0.1130    3.9220    4.1100 C   0  0  0  0  0  0  0  0  0  0  0  0
   -0.6600    4.8940    2.0410 C   0  0  0  0  0  0  0  0  0  0  0  0
   -0.2870    6.2150    4.0880 O   0  0  0  0  0  0  0  0  0  0  0  0
    1.7790   -4.1600   -7.1210 C   0  0  0  0  0  0  0  0  0  0  0  0
    1.3030   -3.5390   -5.9680 C   0  0  0  0  0  0  0  0  0  0  0  0
    4.5560   -2.7140   -4.2830 C   0  0  0  0  0  0  0  0  0  0  0  0
    3.1480   -4.2980   -7.3300 C   0  0  0  0  0  0  0  0  0  0  0  0
    5.4480   -3.9600   -6.6030 C   0  0  0  0  0  0  0  0  0  0  0  0
   -0.6920    7.3890    3.3920 C   0  0  0  0  0  0  0  0  0  0  0  0
    5.9250   -2.8630   -4.5130 C   0  0  0  0  0  0  0  0  0  0  0  0
    6.3710   -3.4860   -5.6720 C   0  0  0  0  0  0  0  0  0  0  0  0
    0.0780    2.0100   -0.2850 H   0  0  0  0  0  0  0  0  0  0  0  0
   -0.0400   -1.6710   -4.3950 H   0  0  0  0  0  0  0  0  0  0  0  0
   -0.0710   -3.2440   -3.5630 H   0  0  0  0  0  0  0  0  0  0  0  0
   -0.9350    3.5340    0.4020 H   0  0  0  0  0  0  0  0  0  0  0  0
    0.4400    1.7950    4.0770 H   0  0  0  0  0  0  0  0  0  0  0  0
    0.3990    4.0310    5.1460 H   0  0  0  0  0  0  0  0  0  0  0  0
   -0.9740    5.7580    1.4740 H   0  0  0  0  0  0  0  0  0  0  0  0
    1.0820   -4.5360   -7.8560 H   0  0  0  0  0  0  0  0  0  0  0  0
    0.2390   -3.4350   -5.8140 H   0  0  0  0  0  0  0  0  0  0  0  0
    4.2230   -2.2290   -3.3780 H   0  0  0  0  0  0  0  0  0  0  0  0
    3.5060   -4.7800   -8.2280 H   0  0  0  0  0  0  0  0  0  0  0  0
    5.7990   -4.4440   -7.5030 H   0  0  0  0  0  0  0  0  0  0  0  0
   -0.6470    8.2450    4.0660 H   0  0  0  0  0  0  0  0  0  0  0  0
   -1.7130    7.2640    3.0320 H   0  0  0  0  0  0  0  0  0  0  0  0
   -0.0260    7.5570    2.5450 H   0  0  0  0  0  0  0  0  0  0  0  0
    6.6370   -2.4940   -3.7900 H   0  0  0  0  0  0  0  0  0  0  0  0
    7.4300   -3.6030   -5.8510 H   0  0  0  0  0  0  0  0  0  0  0  0
  1  2  1  0  0  0  0
  1  3  1  0  0  0  0
  1  4  2  0  0  0  0
  2  6  1  0  0  0  0
  3  7  1  0  0  0  0
  3 29  1  0  0  0  0
  4  5  1  0  0  0  0
  5  6  2  0  0  0  0
  6 13  1  0  0  0  0
  7  8  1  0  0  0  0
  7 10  2  0  0  0  0
  8 14  1  0  0  0  0
  8 15  2  0  0  0  0
  9 12  2  0  0  0  0
  9 16  1  0  0  0  0
  9 23  1  0  0  0  0
 11 12  1  0  0  0  0
 11 13  1  0  0  0  0
 12 22  1  0  0  0  0
 13 30  1  0  0  0  0
 13 31  1  0  0  0  0
 14 19  2  0  0  0  0
 14 32  1  0  0  0  0
 15 18  1  0  0  0  0
 15 33  1  0  0  0  0
 16 24  2  0  0  0  0
 16 25  1  0  0  0  0
 17 18  2  0  0  0  0
 17 19  1  0  0  0  0
 17 20  1  0  0  0  0
 18 34  1  0  0  0  0
 19 35  1  0  0  0  0
 20 26  1  0  0  0  0
 21 22  2  0  0  0  0
 21 24  1  0  0  0  0
 21 36  1  0  0  0  0
 22 37  1  0  0  0  0
 23 27  2  0  0  0  0
 23 38  1  0  0  0  0
 24 39  1  0  0  0  0
 25 28  2  0  0  0  0
 25 40  1  0  0  0  0
 26 41  1  0  0  0  0
 26 42  1  0  0  0  0
 26 43  1  0  0  0  0
 27 28  1  0  0  0  0
 27 44  1  0  0  0  0
 28 45  1  0  0  0  0
M  END
>  <$CLUSTER>
744

>  <INDEX>
488231

$$$$
