Biofocus 119_0552_0135
 OpenBabel04062209303D

 53 56  0  0  0  0  0  0  0  0999 V2000
   -0.4780    0.1000    1.2190 N   0  0  0  0  0  0  0  0  0  0  0  0
   -0.0020   -0.0280   -0.0680 C   0  0  0  0  0  0  0  0  0  0  0  0
   -1.5870   -0.3970    1.8870 C   0  0  0  0  0  0  0  0  0  0  0  0
    0.4040    0.9060    1.8920 C   0  0  0  0  0  0  0  0  0  0  0  0
   -1.7660   -0.0700    3.1880 C   0  0  0  0  0  0  0  0  0  0  0  0
    1.4040    1.3050    1.1480 N   0  0  0  0  0  0  0  0  0  0  0  0
   -0.8860    0.7480    3.8990 N   0  0  0  0  0  0  0  0  0  0  0  0
   -0.6530   -0.7800   -1.0250 N   0  0  0  0  0  0  0  0  0  0  0  0
    1.1580    0.7270   -0.0770 C   0  0  0  0  0  0  0  0  0  0  0  0
   -0.1790   -0.9130   -2.3220 C   0  0  0  0  0  0  0  0  0  0  0  0
    0.1570    1.2150    3.2700 C   0  0  0  0  0  0  0  0  0  0  0  0
   -2.9530   -0.5840    3.9500 C   0  0  0  0  0  0  0  0  0  0  0  0
   -4.2380   -0.3050    3.4930 C   0  0  0  0  0  0  0  0  0  0  0  0
   -5.3390   -0.7960    4.1980 C   0  0  0  0  0  0  0  0  0  0  0  0
   -6.6690   -0.5070    3.7410 N   0  0  0  0  0  0  0  0  0  0  0  0
    0.8340   -0.4140   -2.8030 O   0  0  0  0  0  0  0  0  0  0  0  0
   -1.0840   -1.7890   -3.1500 C   0  0  0  0  0  0  0  0  0  0  0  0
   -0.6190   -1.9730   -4.5860 C   0  0  0  0  0  0  0  0  0  0  0  0
    0.2670   -3.0030   -4.9080 C   0  0  0  0  0  0  0  0  0  0  0  0
    0.7290   -3.1440   -6.2170 C   0  0  0  0  0  0  0  0  0  0  0  0
    1.5900   -4.1290   -6.6570 O   0  0  0  0  0  0  0  0  0  0  0  0
   -2.7540   -1.3510    5.0880 C   0  0  0  0  0  0  0  0  0  0  0  0
   -5.1490   -1.5640    5.3460 C   0  0  0  0  0  0  0  0  0  0  0  0
   -3.8580   -1.8410    5.7910 C   0  0  0  0  0  0  0  0  0  0  0  0
   -0.5450   -1.2050   -6.8780 C   0  0  0  0  0  0  0  0  0  0  0  0
   -7.8890   -0.9700    4.4040 C   0  0  0  0  0  0  0  0  0  0  0  0
   -6.8680    0.3000    2.5360 C   0  0  0  0  0  0  0  0  0  0  0  0
   -1.0080   -1.0620   -5.5690 C   0  0  0  0  0  0  0  0  0  0  0  0
    0.3220   -2.2460   -7.2010 C   0  0  0  0  0  0  0  0  0  0  0  0
    2.0350   -5.0760   -5.6930 C   0  0  0  0  0  0  0  0  0  0  0  0
   -2.2950   -1.0340    1.3780 H   0  0  0  0  0  0  0  0  0  0  0  0
   -1.5090   -1.2520   -0.7710 H   0  0  0  0  0  0  0  0  0  0  0  0
    1.7940    0.8480   -0.9410 H   0  0  0  0  0  0  0  0  0  0  0  0
    0.8510    1.8500    3.8000 H   0  0  0  0  0  0  0  0  0  0  0  0
   -4.3820    0.2860    2.6010 H   0  0  0  0  0  0  0  0  0  0  0  0
   -2.0770   -1.3390   -3.1660 H   0  0  0  0  0  0  0  0  0  0  0  0
   -1.1370   -2.7700   -2.6780 H   0  0  0  0  0  0  0  0  0  0  0  0
    0.5950   -3.6910   -4.1430 H   0  0  0  0  0  0  0  0  0  0  0  0
   -1.7520   -1.5680    5.4290 H   0  0  0  0  0  0  0  0  0  0  0  0
   -6.0010   -1.9440    5.8900 H   0  0  0  0  0  0  0  0  0  0  0  0
   -3.7100   -2.4350    6.6810 H   0  0  0  0  0  0  0  0  0  0  0  0
   -0.8590   -0.5080   -7.6410 H   0  0  0  0  0  0  0  0  0  0  0  0
   -7.6240   -1.5570    5.2830 H   0  0  0  0  0  0  0  0  0  0  0  0
   -8.4650   -1.5870    3.7150 H   0  0  0  0  0  0  0  0  0  0  0  0
   -8.4860   -0.1100    4.7080 H   0  0  0  0  0  0  0  0  0  0  0  0
   -5.8990    0.5880    2.1280 H   0  0  0  0  0  0  0  0  0  0  0  0
   -7.4370    1.1950    2.7880 H   0  0  0  0  0  0  0  0  0  0  0  0
   -7.4160   -0.2820    1.7950 H   0  0  0  0  0  0  0  0  0  0  0  0
   -1.6680   -0.2450   -5.3170 H   0  0  0  0  0  0  0  0  0  0  0  0
    0.6790   -2.3570   -8.2140 H   0  0  0  0  0  0  0  0  0  0  0  0
    2.7040   -5.7920   -6.1690 H   0  0  0  0  0  0  0  0  0  0  0  0
    1.1760   -5.6020   -5.2770 H   0  0  0  0  0  0  0  0  0  0  0  0
    2.5660   -4.5590   -4.8940 H   0  0  0  0  0  0  0  0  0  0  0  0
  1  2  1  0  0  0  0
  1  3  1  0  0  0  0
  1  4  1  0  0  0  0
  2  8  1  0  0  0  0
  2  9  2  0  0  0  0
  3  5  2  0  0  0  0
  3 31  1  0  0  0  0
  4  6  2  0  0  0  0
  4 11  1  0  0  0  0
  5  7  1  0  0  0  0
  5 12  1  0  0  0  0
  6  9  1  0  0  0  0
  7 11  2  0  0  0  0
  8 10  1  0  0  0  0
  8 32  1  0  0  0  0
  9 33  1  0  0  0  0
 10 16  2  0  0  0  0
 10 17  1  0  0  0  0
 11 34  1  0  0  0  0
 12 13  2  0  0  0  0
 12 22  1  0  0  0  0
 13 14  1  0  0  0  0
 13 35  1  0  0  0  0
 14 15  1  0  0  0  0
 14 23  2  0  0  0  0
 15 26  1  0  0  0  0
 15 27  1  0  0  0  0
 17 18  1  0  0  0  0
 17 36  1  0  0  0  0
 17 37  1  0  0  0  0
 18 19  2  0  0  0  0
 18 28  1  0  0  0  0
 19 20  1  0  0  0  0
 19 38  1  0  0  0  0
 20 21  1  0  0  0  0
 20 29  2  0  0  0  0
 21 30  1  0  0  0  0
 22 24  2  0  0  0  0
 22 39  1  0  0  0  0
 23 24  1  0  0  0  0
 23 40  1  0  0  0  0
 24 41  1  0  0  0  0
 25 28  2  0  0  0  0
 25 29  1  0  0  0  0
 25 42  1  0  0  0  0
 26 43  1  0  0  0  0
 26 44  1  0  0  0  0
 26 45  1  0  0  0  0
 27 46  1  0  0  0  0
 27 47  1  0  0  0  0
 27 48  1  0  0  0  0
 28 49  1  0  0  0  0
 29 50  1  0  0  0  0
 30 51  1  0  0  0  0
 30 52  1  0  0  0  0
 30 53  1  0  0  0  0
M  END
>  <$CLUSTER>
22

>  <INDEX>
10269

$$$$
