Cerep CER0099275
 OpenBabel04062209303D

 48 51  0  0  0  0  0  0  0  0999 V2000
   -0.0880    0.1720    0.1570 C   0  0  0  0  0  0  0  0  0  0  0  0
    1.0850    0.8290    0.8240 C   0  0  0  0  0  0  0  0  0  0  0  0
   -3.3900   -1.7470   -1.7970 C   0  0  0  0  0  0  0  0  0  0  0  0
   -3.2120   -3.0320   -2.2610 N   0  0  0  0  0  0  0  0  0  0  0  0
    0.1350   -0.8370   -0.7790 C   0  0  0  0  0  0  0  0  0  0  0  0
   -2.2300   -1.1070   -1.1350 C   0  0  0  0  0  0  0  0  0  0  0  0
   -0.9180   -1.4770   -1.4250 C   0  0  0  0  0  0  0  0  0  0  0  0
   -3.3050   -5.9600   -2.2170 N   0  3  0  0  0  0  0  0  0  0  0  0
   -1.4150    0.5370    0.4420 C   0  0  0  0  0  0  0  0  0  0  0  0
   -1.3100   -9.8950   -3.3300 C   0  0  0  0  0  0  0  0  0  0  0  0
   -0.2350   -9.9660   -2.4470 C   0  0  0  0  0  0  0  0  0  0  0  0
   -1.1600  -10.7070   -4.3860 O   0  0  0  0  0  0  0  0  0  0  0  0
    0.7080  -10.8230   -2.8590 O   0  0  0  0  0  0  0  0  0  0  0  0
   -2.4780   -0.1010   -0.2020 C   0  0  0  0  0  0  0  0  0  0  0  0
    0.1260  -11.3020   -4.0930 C   0  0  0  0  0  0  0  0  0  0  0  0
   -4.4530   -1.1410   -1.8980 O   0  0  0  0  0  0  0  0  0  0  0  0
   -2.3820   -9.0430   -3.0600 C   0  0  0  0  0  0  0  0  0  0  0  0
   -4.3090   -3.7450   -2.9280 C   0  0  0  0  0  0  0  0  0  0  0  0
   -1.9640   -3.8090   -2.1630 C   0  0  0  0  0  0  0  0  0  0  0  0
   -2.3870   -8.2690   -1.8960 C   0  0  0  0  0  0  0  0  0  0  0  0
   -3.5370   -7.3130   -1.6190 C   0  0  0  0  0  0  0  0  0  0  0  0
    1.8590   -0.0490    1.5290 F   0  0  0  0  0  0  0  0  0  0  0  0
    1.9280    1.4410   -0.0590 F   0  0  0  0  0  0  0  0  0  0  0  0
    0.7330    1.8000    1.7190 F   0  0  0  0  0  0  0  0  0  0  0  0
   -0.2270   -9.1820   -1.2960 C   0  0  0  0  0  0  0  0  0  0  0  0
   -4.5770   -5.1340   -2.2830 C   0  0  0  0  0  0  0  0  0  0  0  0
   -2.1990   -5.1990   -1.5070 C   0  0  0  0  0  0  0  0  0  0  0  0
    1.3900   -1.2080   -1.0720 F   0  0  0  0  0  0  0  0  0  0  0  0
   -1.2970   -8.3280   -1.0230 C   0  0  0  0  0  0  0  0  0  0  0  0
   -0.7200   -2.2560   -2.1470 H   0  0  0  0  0  0  0  0  0  0  0  0
   -3.0000   -6.1230   -3.1660 H   0  0  0  0  0  0  0  0  0  0  0  0
   -1.6140    1.3160    1.1630 H   0  0  0  0  0  0  0  0  0  0  0  0
   -3.4950    0.1860    0.0230 H   0  0  0  0  0  0  0  0  0  0  0  0
    0.8090  -11.0710   -4.9110 H   0  0  0  0  0  0  0  0  0  0  0  0
   -0.0010  -12.3820   -4.0200 H   0  0  0  0  0  0  0  0  0  0  0  0
   -3.2090   -8.9820   -3.7520 H   0  0  0  0  0  0  0  0  0  0  0  0
   -4.0500   -3.8880   -3.9770 H   0  0  0  0  0  0  0  0  0  0  0  0
   -5.2150   -3.1430   -2.8570 H   0  0  0  0  0  0  0  0  0  0  0  0
   -1.2470   -3.2510   -1.5600 H   0  0  0  0  0  0  0  0  0  0  0  0
   -1.5600   -3.9550   -3.1650 H   0  0  0  0  0  0  0  0  0  0  0  0
   -4.4510   -7.7310   -2.0410 H   0  0  0  0  0  0  0  0  0  0  0  0
   -3.6520   -7.2050   -0.5400 H   0  0  0  0  0  0  0  0  0  0  0  0
    0.6080   -9.2350   -0.6140 H   0  0  0  0  0  0  0  0  0  0  0  0
   -4.9610   -4.9900   -1.2730 H   0  0  0  0  0  0  0  0  0  0  0  0
   -5.3170   -5.6670   -2.8800 H   0  0  0  0  0  0  0  0  0  0  0  0
   -1.2770   -5.7780   -1.5610 H   0  0  0  0  0  0  0  0  0  0  0  0
   -2.4780   -5.0570   -0.4630 H   0  0  0  0  0  0  0  0  0  0  0  0
   -1.2830   -7.7120   -0.1360 H   0  0  0  0  0  0  0  0  0  0  0  0
  1  2  1  0  0  0  0
  1  5  1  0  0  0  0
  1  9  2  0  0  0  0
  2 22  1  0  0  0  0
  2 23  1  0  0  0  0
  2 24  1  0  0  0  0
  3  4  1  0  0  0  0
  3  6  1  0  0  0  0
  3 16  2  0  0  0  0
  4 18  1  0  0  0  0
  4 19  1  0  0  0  0
  5  7  2  0  0  0  0
  5 28  1  0  0  0  0
  6  7  1  0  0  0  0
  6 14  2  0  0  0  0
  7 30  1  0  0  0  0
  8 21  1  0  0  0  0
  8 26  1  0  0  0  0
  8 27  1  0  0  0  0
  8 31  1  0  0  0  0
  9 14  1  0  0  0  0
  9 32  1  0  0  0  0
 10 11  1  0  0  0  0
 10 12  1  0  0  0  0
 10 17  2  0  0  0  0
 11 13  1  0  0  0  0
 11 25  2  0  0  0  0
 12 15  1  0  0  0  0
 13 15  1  0  0  0  0
 14 33  1  0  0  0  0
 15 34  1  0  0  0  0
 15 35  1  0  0  0  0
 17 20  1  0  0  0  0
 17 36  1  0  0  0  0
 18 26  1  0  0  0  0
 18 37  1  0  0  0  0
 18 38  1  0  0  0  0
 19 27  1  0  0  0  0
 19 39  1  0  0  0  0
 19 40  1  0  0  0  0
 20 21  1  0  0  0  0
 20 29  2  0  0  0  0
 21 41  1  0  0  0  0
 21 42  1  0  0  0  0
 25 29  1  0  0  0  0
 25 43  1  0  0  0  0
 26 44  1  0  0  0  0
 26 45  1  0  0  0  0
 27 46  1  0  0  0  0
 27 47  1  0  0  0  0
 29 48  1  0  0  0  0
M  CHG  1   8   1
M  END
>  <$CLUSTER>
583

>  <INDEX>
187005

$$$$
