Chemical Block A3816/0161993
 OpenBabel04062209303D

 44 47  0  0  0  0  0  0  0  0999 V2000
   -0.8780    0.0090    0.7430 C   0  0  0  0  0  0  0  0  0  0  0  0
    0.0220    1.0220    0.4730 C   0  0  0  0  0  0  0  0  0  0  0  0
   -0.6890   -0.9760   -0.1910 N   0  0  0  0  0  0  0  0  0  0  0  0
   -1.7630    0.0280    1.7560 N   0  0  0  0  0  0  0  0  0  0  0  0
    0.7900    0.6510   -0.6560 C   0  0  0  0  0  0  0  0  0  0  0  0
    0.0270    2.1170    1.2690 N   0  0  0  0  0  0  0  0  0  0  0  0
    0.3290   -0.6120   -1.0580 C   0  0  0  0  0  0  0  0  0  0  0  0
   -1.6490    1.1730    2.4660 C   0  0  0  0  0  0  0  0  0  0  0  0
   -0.8000    2.2130    2.2690 N   0  0  0  0  0  0  0  0  0  0  0  0
   -1.4500   -2.2130   -0.2540 C   0  0  0  0  0  0  0  0  0  0  0  0
   -2.7810    1.3690    3.8820 S   0  0  0  0  0  0  0  0  0  0  0  0
   -0.7860   -3.3370    0.5200 C   0  0  0  0  0  0  0  0  0  0  0  0
   -1.3580   -4.0240    1.4940 C   0  0  0  0  0  0  0  0  0  0  0  0
    1.8350    1.2620   -1.3770 C   0  0  0  0  0  0  0  0  0  0  0  0
    0.8880   -1.2820   -2.1590 C   0  0  0  0  0  0  0  0  0  0  0  0
   -1.7830   -2.3810    6.0580 C   0  0  0  0  0  0  0  0  0  0  0  0
   -2.5230   -1.3880    5.5680 O   0  0  0  0  0  0  0  0  0  0  0  0
   -3.7080   -0.1870    3.7880 C   0  0  0  0  0  0  0  0  0  0  0  0
   -2.8600   -1.3920    4.1750 C   0  0  0  0  0  0  0  0  0  0  0  0
   -1.5080   -2.2880    7.4270 C   0  0  0  0  0  0  0  0  0  0  0  0
   -1.2820   -3.4660    5.3330 C   0  0  0  0  0  0  0  0  0  0  0  0
    2.3910    0.5990   -2.4750 C   0  0  0  0  0  0  0  0  0  0  0  0
    1.9240   -0.6550   -2.8580 C   0  0  0  0  0  0  0  0  0  0  0  0
   -0.5150   -4.4430    5.9750 C   0  0  0  0  0  0  0  0  0  0  0  0
   -0.7430   -3.2640    8.0660 C   0  0  0  0  0  0  0  0  0  0  0  0
   -0.2460   -4.3440    7.3390 C   0  0  0  0  0  0  0  0  0  0  0  0
   -1.5440   -2.5140   -1.2970 H   0  0  0  0  0  0  0  0  0  0  0  0
   -2.4410   -2.0370    0.1640 H   0  0  0  0  0  0  0  0  0  0  0  0
    0.2290   -3.5950    0.2560 H   0  0  0  0  0  0  0  0  0  0  0  0
   -0.8110   -4.8100    1.9930 H   0  0  0  0  0  0  0  0  0  0  0  0
   -2.3720   -3.7990    1.7900 H   0  0  0  0  0  0  0  0  0  0  0  0
    2.2030    2.2340   -1.0840 H   0  0  0  0  0  0  0  0  0  0  0  0
    0.5270   -2.2550   -2.4570 H   0  0  0  0  0  0  0  0  0  0  0  0
   -4.0630   -0.3220    2.7660 H   0  0  0  0  0  0  0  0  0  0  0  0
   -4.5610   -0.1280    4.4640 H   0  0  0  0  0  0  0  0  0  0  0  0
   -3.4180   -2.3010    3.9510 H   0  0  0  0  0  0  0  0  0  0  0  0
   -1.9400   -1.3770    3.5910 H   0  0  0  0  0  0  0  0  0  0  0  0
   -1.8920   -1.4530    7.9940 H   0  0  0  0  0  0  0  0  0  0  0  0
   -1.4880   -3.5500    4.2760 H   0  0  0  0  0  0  0  0  0  0  0  0
    3.1910    1.0640   -3.0320 H   0  0  0  0  0  0  0  0  0  0  0  0
    2.3690   -1.1510   -3.7080 H   0  0  0  0  0  0  0  0  0  0  0  0
   -0.1290   -5.2790    5.4110 H   0  0  0  0  0  0  0  0  0  0  0  0
   -0.5360   -3.1830    9.1230 H   0  0  0  0  0  0  0  0  0  0  0  0
    0.3460   -5.1020    7.8310 H   0  0  0  0  0  0  0  0  0  0  0  0
  1  2  2  0  0  0  0
  1  3  1  0  0  0  0
  1  4  1  0  0  0  0
  2  5  1  0  0  0  0
  2  6  1  0  0  0  0
  3  7  1  0  0  0  0
  3 10  1  0  0  0  0
  4  8  2  0  0  0  0
  5  7  2  0  0  0  0
  5 14  1  0  0  0  0
  6  9  2  0  0  0  0
  7 15  1  0  0  0  0
  8  9  1  0  0  0  0
  8 11  1  0  0  0  0
 10 12  1  0  0  0  0
 10 27  1  0  0  0  0
 10 28  1  0  0  0  0
 11 18  1  0  0  0  0
 12 13  2  0  0  0  0
 12 29  1  0  0  0  0
 13 30  1  0  0  0  0
 13 31  1  0  0  0  0
 14 22  2  0  0  0  0
 14 32  1  0  0  0  0
 15 23  2  0  0  0  0
 15 33  1  0  0  0  0
 16 17  1  0  0  0  0
 16 20  1  0  0  0  0
 16 21  2  0  0  0  0
 17 19  1  0  0  0  0
 18 19  1  0  0  0  0
 18 34  1  0  0  0  0
 18 35  1  0  0  0  0
 19 36  1  0  0  0  0
 19 37  1  0  0  0  0
 20 25  2  0  0  0  0
 20 38  1  0  0  0  0
 21 24  1  0  0  0  0
 21 39  1  0  0  0  0
 22 23  1  0  0  0  0
 22 40  1  0  0  0  0
 23 41  1  0  0  0  0
 24 26  2  0  0  0  0
 24 42  1  0  0  0  0
 25 26  1  0  0  0  0
 25 43  1  0  0  0  0
 26 44  1  0  0  0  0
M  END
>  <$CLUSTER>
243

>  <INDEX>
120541

$$$$
