Biofocus 170_0148_0349
 OpenBabel04062209303D

 50 53  0  0  1  0  0  0  0  0999 V2000
   -0.2550   -0.4520   -0.8220 N   0  0  0  0  0  0  0  0  0  0  0  0
    0.9790   -1.1400   -0.9900 C   0  0  0  0  0  0  0  0  0  0  0  0
   -0.1150    0.4690    0.2340 C   0  0  0  0  0  0  0  0  0  0  0  0
    1.8550   -0.6050   -0.0110 N   0  0  0  0  0  0  0  0  0  0  0  0
    1.1770    0.3690    0.7220 C   0  0  0  0  0  0  0  0  0  0  0  0
   -1.0150    1.3230    0.7360 N   0  0  0  0  0  0  0  0  0  0  0  0
   -1.6170    6.4350    4.0430 C   0  0  0  0  0  0  0  0  0  0  0  0
    1.6490    1.1060    1.7330 N   0  0  0  0  0  0  0  0  0  0  0  0
   -1.4630   -0.6620   -1.6060 C   0  0  2  0  0  0  0  0  0  0  0  0
   -0.5530    2.0770    1.7600 C   0  0  0  0  0  0  0  0  0  0  0  0
   -2.1130    5.1660    3.4500 C   0  0  0  0  0  0  0  0  0  0  0  0
   -1.1680    4.2860    2.9130 C   0  0  0  0  0  0  0  0  0  0  0  0
    1.2480   -2.0120   -1.8040 O   0  0  0  0  0  0  0  0  0  0  0  0
   -1.5570    3.0550    2.3450 C   0  0  0  0  0  0  0  0  0  0  0  0
   -2.5000    7.4920    4.0630 N   0  0  0  0  0  0  0  0  0  0  0  0
    0.7450    1.9710    2.2460 C   0  0  0  0  0  0  0  0  0  0  0  0
   -0.4710    6.5110    4.4750 O   0  0  0  0  0  0  0  0  0  0  0  0
   -1.8610    0.5830   -2.3970 C   0  0  0  0  0  0  0  0  0  0  0  0
   -3.4650    4.8390    3.4290 C   0  0  0  0  0  0  0  0  0  0  0  0
   -2.6200   -1.1830   -0.7550 C   0  0  0  0  0  0  0  0  0  0  0  0
   -2.9350    2.7550    2.3300 C   0  0  0  0  0  0  0  0  0  0  0  0
   -3.8770    3.6330    2.8670 C   0  0  0  0  0  0  0  0  0  0  0  0
   -3.8820    7.4640    3.5570 C   0  0  0  0  0  0  0  0  0  0  0  0
   -2.0980    8.7880    4.6270 C   0  0  0  0  0  0  0  0  0  0  0  0
   -1.9920    1.8250   -1.7400 C   0  0  0  0  0  0  0  0  0  0  0  0
   -2.1490    0.5160   -3.7640 C   0  0  0  0  0  0  0  0  0  0  0  0
   -2.5460    1.6570   -4.4680 C   0  0  0  0  0  0  0  0  0  0  0  0
   -2.3890    2.9640   -2.4440 C   0  0  0  0  0  0  0  0  0  0  0  0
   -2.6670    2.8790   -3.8080 C   0  0  0  0  0  0  0  0  0  0  0  0
    2.8150   -0.8840    0.1320 H   0  0  0  0  0  0  0  0  0  0  0  0
   -1.2270   -1.4390   -2.3330 H   0  0  0  0  0  0  0  0  0  0  0  0
   -0.1220    4.5540    2.9340 H   0  0  0  0  0  0  0  0  0  0  0  0
    1.0440    2.6060    3.0670 H   0  0  0  0  0  0  0  0  0  0  0  0
   -4.1930    5.5180    3.8470 H   0  0  0  0  0  0  0  0  0  0  0  0
   -2.8900   -0.4340   -0.0110 H   0  0  0  0  0  0  0  0  0  0  0  0
   -2.3160   -2.1010   -0.2520 H   0  0  0  0  0  0  0  0  0  0  0  0
   -3.4790   -1.3860   -1.3950 H   0  0  0  0  0  0  0  0  0  0  0  0
   -3.2680    1.8250    1.8930 H   0  0  0  0  0  0  0  0  0  0  0  0
   -4.9260    3.3770    2.8470 H   0  0  0  0  0  0  0  0  0  0  0  0
   -4.3420    8.4410    3.7030 H   0  0  0  0  0  0  0  0  0  0  0  0
   -4.4520    6.7090    4.0980 H   0  0  0  0  0  0  0  0  0  0  0  0
   -3.8750    7.2210    2.4940 H   0  0  0  0  0  0  0  0  0  0  0  0
   -2.9280    9.4900    4.5520 H   0  0  0  0  0  0  0  0  0  0  0  0
   -1.2430    9.1760    4.0730 H   0  0  0  0  0  0  0  0  0  0  0  0
   -1.8250    8.6590    5.6740 H   0  0  0  0  0  0  0  0  0  0  0  0
   -1.7830    1.8950   -0.6830 H   0  0  0  0  0  0  0  0  0  0  0  0
   -2.0640   -0.4280   -4.2820 H   0  0  0  0  0  0  0  0  0  0  0  0
   -2.7590    1.5920   -5.5250 H   0  0  0  0  0  0  0  0  0  0  0  0
   -2.4810    3.9110   -1.9320 H   0  0  0  0  0  0  0  0  0  0  0  0
   -2.9760    3.7590   -4.3530 H   0  0  0  0  0  0  0  0  0  0  0  0
  1  2  1  0  0  0  0
  1  3  1  0  0  0  0
  1  9  1  0  0  0  0
  2  4  1  0  0  0  0
  2 13  2  0  0  0  0
  3  5  2  0  0  0  0
  3  6  1  0  0  0  0
  4  5  1  0  0  0  0
  4 30  1  0  0  0  0
  5  8  1  0  0  0  0
  6 10  2  0  0  0  0
  7 11  1  0  0  0  0
  7 15  1  0  0  0  0
  7 17  2  0  0  0  0
  8 16  2  0  0  0  0
  9 18  1  0  0  0  0
  9 20  1  0  0  0  0
  9 31  1  6  0  0  0
 10 14  1  0  0  0  0
 10 16  1  0  0  0  0
 11 12  1  0  0  0  0
 11 19  2  0  0  0  0
 12 14  2  0  0  0  0
 12 32  1  0  0  0  0
 14 21  1  0  0  0  0
 15 23  1  0  0  0  0
 15 24  1  0  0  0  0
 16 33  1  0  0  0  0
 18 25  1  0  0  0  0
 18 26  2  0  0  0  0
 19 22  1  0  0  0  0
 19 34  1  0  0  0  0
 20 35  1  0  0  0  0
 20 36  1  0  0  0  0
 20 37  1  0  0  0  0
 21 22  2  0  0  0  0
 21 38  1  0  0  0  0
 22 39  1  0  0  0  0
 23 40  1  0  0  0  0
 23 41  1  0  0  0  0
 23 42  1  0  0  0  0
 24 43  1  0  0  0  0
 24 44  1  0  0  0  0
 24 45  1  0  0  0  0
 25 28  2  0  0  0  0
 25 46  1  0  0  0  0
 26 27  1  0  0  0  0
 26 47  1  0  0  0  0
 27 29  2  0  0  0  0
 27 48  1  0  0  0  0
 28 29  1  0  0  0  0
 28 49  1  0  0  0  0
 29 50  1  0  0  0  0
M  END
>  <$CLUSTER>
27

>  <INDEX>
15645

$$$$
