Life Chemicals F0631-0161
 OpenBabel04062209303D

 51 54  0  0  1  0  0  0  0  0999 V2000
    0.0160    0.5500   -0.0420 N   0  0  0  0  0  0  0  0  0  0  0  0
    0.4960   -0.1910   -1.0850 C   0  0  0  0  0  0  0  0  0  0  0  0
   -0.7000   -1.4920    0.6100 C   0  0  0  0  0  0  0  0  0  0  0  0
   -0.6600   -0.1800    0.9190 C   0  0  0  0  0  0  0  0  0  0  0  0
    0.1170   -1.8730   -0.9130 S   0  0  0  0  0  0  0  0  0  0  0  0
    1.1240    0.5350   -1.9640 N   0  0  0  0  0  0  0  0  0  0  0  0
    0.3410    1.8440   -0.2310 N   0  0  0  0  0  0  0  0  0  0  0  0
    1.0030    1.7790   -1.3960 C   0  0  0  0  0  0  0  0  0  0  0  0
   -1.3940   -2.5550    1.4700 C   0  0  1  0  0  0  0  0  0  0  0  0
   -2.4120   -3.3440    0.7090 N   0  3  0  0  0  0  0  0  0  0  0  0
   -0.4110   -3.5400    2.1000 C   0  0  0  0  0  0  0  0  0  0  0  0
   -1.2090    0.3940    2.0330 O   0  0  0  0  0  0  0  0  0  0  0  0
    1.3670   -5.3770    3.3280 C   0  0  0  0  0  0  0  0  0  0  0  0
   -0.5050   -3.8590    3.4850 C   0  0  0  0  0  0  0  0  0  0  0  0
    0.6070   -4.1850    1.3690 C   0  0  0  0  0  0  0  0  0  0  0  0
    1.4830   -5.0890    1.9710 C   0  0  0  0  0  0  0  0  0  0  0  0
    0.3720   -4.7630    4.0840 C   0  0  0  0  0  0  0  0  0  0  0  0
   -3.9430   -5.6160   -0.2610 O   0  0  0  0  0  0  0  0  0  0  0  0
    2.3170   -6.3660    4.0110 C   0  0  0  0  0  0  0  0  0  0  0  0
   -1.9280   -4.2490   -0.3970 C   0  0  0  0  0  0  0  0  0  0  0  0
   -3.4730   -4.0090    1.5350 C   0  0  0  0  0  0  0  0  0  0  0  0
    1.5610    2.9640   -2.0260 C   0  0  0  0  0  0  0  0  0  0  0  0
   -3.0370   -4.9240   -1.1460 C   0  0  0  0  0  0  0  0  0  0  0  0
   -4.5330   -4.7080    0.6950 C   0  0  0  0  0  0  0  0  0  0  0  0
    3.7690   -5.8820    3.9560 C   0  0  0  0  0  0  0  0  0  0  0  0
    2.1890   -7.7720    3.4180 C   0  0  0  0  0  0  0  0  0  0  0  0
   -1.8900   -1.9830    2.2540 H   0  0  0  0  0  0  0  0  0  0  0  0
   -2.8500   -2.5750    0.2220 H   0  0  0  0  0  0  0  0  0  0  0  0
   -1.6540   -0.2160    2.6260 H   0  0  0  0  0  0  0  0  0  0  0  0
   -1.2720   -3.3910    4.0840 H   0  0  0  0  0  0  0  0  0  0  0  0
    0.7120   -3.9740    0.3150 H   0  0  0  0  0  0  0  0  0  0  0  0
    2.2530   -5.5660    1.3830 H   0  0  0  0  0  0  0  0  0  0  0  0
    0.2790   -4.9870    5.1360 H   0  0  0  0  0  0  0  0  0  0  0  0
    2.0220   -6.4180    5.0590 H   0  0  0  0  0  0  0  0  0  0  0  0
   -1.2900   -5.0170    0.0400 H   0  0  0  0  0  0  0  0  0  0  0  0
   -1.3490   -3.6530   -1.1020 H   0  0  0  0  0  0  0  0  0  0  0  0
   -3.9610   -3.2510    2.1490 H   0  0  0  0  0  0  0  0  0  0  0  0
   -2.9980   -4.7480    2.1800 H   0  0  0  0  0  0  0  0  0  0  0  0
    2.0530    2.6830   -2.9570 H   0  0  0  0  0  0  0  0  0  0  0  0
    2.2870    3.4240   -1.3560 H   0  0  0  0  0  0  0  0  0  0  0  0
    0.7610    3.6740   -2.2370 H   0  0  0  0  0  0  0  0  0  0  0  0
   -3.5950   -4.1710   -1.7030 H   0  0  0  0  0  0  0  0  0  0  0  0
   -2.6050   -5.6440   -1.8410 H   0  0  0  0  0  0  0  0  0  0  0  0
   -5.1930   -5.2700    1.3550 H   0  0  0  0  0  0  0  0  0  0  0  0
   -5.1110   -3.9560    0.1580 H   0  0  0  0  0  0  0  0  0  0  0  0
    4.0920   -5.8200    2.9170 H   0  0  0  0  0  0  0  0  0  0  0  0
    4.4070   -6.5840    4.4930 H   0  0  0  0  0  0  0  0  0  0  0  0
    3.8420   -4.8980    4.4190 H   0  0  0  0  0  0  0  0  0  0  0  0
    2.4780   -7.7510    2.3670 H   0  0  0  0  0  0  0  0  0  0  0  0
    1.1560   -8.1100    3.5040 H   0  0  0  0  0  0  0  0  0  0  0  0
    2.8420   -8.4560    3.9610 H   0  0  0  0  0  0  0  0  0  0  0  0
  1  2  1  0  0  0  0
  1  4  1  0  0  0  0
  1  7  1  0  0  0  0
  2  5  1  0  0  0  0
  2  6  2  0  0  0  0
  3  4  2  0  0  0  0
  3  5  1  0  0  0  0
  3  9  1  0  0  0  0
  4 12  1  0  0  0  0
  6  8  1  0  0  0  0
  7  8  2  0  0  0  0
  8 22  1  0  0  0  0
  9 10  1  0  0  0  0
  9 11  1  0  0  0  0
  9 27  1  1  0  0  0
 10 20  1  0  0  0  0
 10 21  1  0  0  0  0
 10 28  1  0  0  0  0
 11 14  1  0  0  0  0
 11 15  2  0  0  0  0
 12 29  1  0  0  0  0
 13 16  2  0  0  0  0
 13 17  1  0  0  0  0
 13 19  1  0  0  0  0
 14 17  2  0  0  0  0
 14 30  1  0  0  0  0
 15 16  1  0  0  0  0
 15 31  1  0  0  0  0
 16 32  1  0  0  0  0
 17 33  1  0  0  0  0
 18 23  1  0  0  0  0
 18 24  1  0  0  0  0
 19 25  1  0  0  0  0
 19 26  1  0  0  0  0
 19 34  1  0  0  0  0
 20 23  1  0  0  0  0
 20 35  1  0  0  0  0
 20 36  1  0  0  0  0
 21 24  1  0  0  0  0
 21 37  1  0  0  0  0
 21 38  1  0  0  0  0
 22 39  1  0  0  0  0
 22 40  1  0  0  0  0
 22 41  1  0  0  0  0
 23 42  1  0  0  0  0
 23 43  1  0  0  0  0
 24 44  1  0  0  0  0
 24 45  1  0  0  0  0
 25 46  1  0  0  0  0
 25 47  1  0  0  0  0
 25 48  1  0  0  0  0
 26 49  1  0  0  0  0
 26 50  1  0  0  0  0
 26 51  1  0  0  0  0
M  CHG  1  10   1
M  END
>  <$CLUSTER>
924

>  <INDEX>
279190

$$$$
