Chembridge 9001855
 OpenBabel04062209303D

 56 59  0  0  0  0  0  0  0  0999 V2000
    1.3630    1.4790   -0.3460 C   0  0  0  0  0  0  0  0  0  0  0  0
    0.3200    0.5500   -0.8350 C   0  0  0  0  0  0  0  0  0  0  0  0
   -0.0810   -0.6390    3.7940 C   0  0  0  0  0  0  0  0  0  0  0  0
   -0.6960   -0.9780    2.4580 C   0  0  0  0  0  0  0  0  0  0  0  0
    2.5320    1.5020   -1.0730 N   0  0  0  0  0  0  0  0  0  0  0  0
   -0.1080   -0.2420    1.4370 N   0  0  0  0  0  0  0  0  0  0  0  0
   -0.4100   -0.2730    0.0500 C   0  0  0  0  0  0  0  0  0  0  0  0
    4.4580    2.4950   -3.0700 N   0  0  0  0  0  0  0  0  0  0  0  0
   -0.9280   -0.4830    4.9240 C   0  0  0  0  0  0  0  0  0  0  0  0
    1.2970   -0.5720    3.9320 C   0  0  0  0  0  0  0  0  0  0  0  0
    1.1680    2.1590    0.6560 O   0  0  0  0  0  0  0  0  0  0  0  0
   -1.5940   -1.8090    2.3760 O   0  0  0  0  0  0  0  0  0  0  0  0
    3.6350    2.3950   -0.6630 C   0  0  0  0  0  0  0  0  0  0  0  0
    2.8260    0.7120   -2.2730 C   0  0  0  0  0  0  0  0  0  0  0  0
    3.3240    1.6230   -3.4320 C   0  0  0  0  0  0  0  0  0  0  0  0
    4.1110    3.2650   -1.8600 C   0  0  0  0  0  0  0  0  0  0  0  0
    5.6070    2.5720   -3.7260 C   0  0  0  0  0  0  0  0  0  0  0  0
   -0.3370   -0.2200    6.1660 C   0  0  0  0  0  0  0  0  0  0  0  0
    1.8670   -0.3100    5.1740 C   0  0  0  0  0  0  0  0  0  0  0  0
    0.0490    0.5360   -2.2120 C   0  0  0  0  0  0  0  0  0  0  0  0
    1.0520   -0.1330    6.2890 C   0  0  0  0  0  0  0  0  0  0  0  0
    3.5610   -0.2070    5.3160 Cl  0  0  0  0  0  0  0  0  0  0  0  0
   -2.2800   -0.5620    4.7120 O   0  0  0  0  0  0  0  0  0  0  0  0
   -1.4000   -1.1070   -0.4880 C   0  0  0  0  0  0  0  0  0  0  0  0
    5.8640    1.8010   -4.8770 C   0  0  0  0  0  0  0  0  0  0  0  0
    6.6460    3.4330   -3.3160 C   0  0  0  0  0  0  0  0  0  0  0  0
   -3.1320   -0.4230    5.8430 C   0  0  0  0  0  0  0  0  0  0  0  0
   -0.9380   -0.3020   -2.7230 C   0  0  0  0  0  0  0  0  0  0  0  0
   -1.6600   -1.1220   -1.8630 C   0  0  0  0  0  0  0  0  0  0  0  0
    7.8620    3.5180   -4.0070 C   0  0  0  0  0  0  0  0  0  0  0  0
    7.0780    1.8810   -5.5730 C   0  0  0  0  0  0  0  0  0  0  0  0
    8.0770    2.7400   -5.1370 C   0  0  0  0  0  0  0  0  0  0  0  0
    0.6250    0.3940    1.7160 H   0  0  0  0  0  0  0  0  0  0  0  0
    1.9310   -0.7240    3.0710 H   0  0  0  0  0  0  0  0  0  0  0  0
    4.4690    1.7920   -0.3050 H   0  0  0  0  0  0  0  0  0  0  0  0
    3.2880    3.0480    0.1380 H   0  0  0  0  0  0  0  0  0  0  0  0
    1.9200    0.1950   -2.5900 H   0  0  0  0  0  0  0  0  0  0  0  0
    3.5990   -0.0200   -2.0380 H   0  0  0  0  0  0  0  0  0  0  0  0
    3.6340    0.9850   -4.2600 H   0  0  0  0  0  0  0  0  0  0  0  0
    2.4950    2.2550   -3.7510 H   0  0  0  0  0  0  0  0  0  0  0  0
    3.3120    3.9610   -2.1160 H   0  0  0  0  0  0  0  0  0  0  0  0
    4.9930    3.8240   -1.5460 H   0  0  0  0  0  0  0  0  0  0  0  0
   -0.9610   -0.0830    7.0370 H   0  0  0  0  0  0  0  0  0  0  0  0
    0.6080    1.1770   -2.8770 H   0  0  0  0  0  0  0  0  0  0  0  0
    1.4950    0.0720    7.2520 H   0  0  0  0  0  0  0  0  0  0  0  0
   -1.9710   -1.7470    0.1680 H   0  0  0  0  0  0  0  0  0  0  0  0
    5.1000    1.1260   -5.2350 H   0  0  0  0  0  0  0  0  0  0  0  0
    6.4990    4.0470   -2.4400 H   0  0  0  0  0  0  0  0  0  0  0  0
   -4.1720   -0.5070    5.5270 H   0  0  0  0  0  0  0  0  0  0  0  0
   -2.9690    0.5520    6.3030 H   0  0  0  0  0  0  0  0  0  0  0  0
   -2.9080   -1.2080    6.5660 H   0  0  0  0  0  0  0  0  0  0  0  0
   -1.1420   -0.3150   -3.7830 H   0  0  0  0  0  0  0  0  0  0  0  0
   -2.4250   -1.7740   -2.2580 H   0  0  0  0  0  0  0  0  0  0  0  0
    8.6330    4.1900   -3.6600 H   0  0  0  0  0  0  0  0  0  0  0  0
    7.2360    1.2720   -6.4510 H   0  0  0  0  0  0  0  0  0  0  0  0
    9.0130    2.8030   -5.6720 H   0  0  0  0  0  0  0  0  0  0  0  0
  1  2  1  0  0  0  0
  1  5  1  0  0  0  0
  1 11  2  0  0  0  0
  2  7  2  0  0  0  0
  2 20  1  0  0  0  0
  3  4  1  0  0  0  0
  3  9  2  0  0  0  0
  3 10  1  0  0  0  0
  4  6  1  0  0  0  0
  4 12  2  0  0  0  0
  5 13  1  0  0  0  0
  5 14  1  0  0  0  0
  6  7  1  0  0  0  0
  6 33  1  0  0  0  0
  7 24  1  0  0  0  0
  8 15  1  0  0  0  0
  8 16  1  0  0  0  0
  8 17  1  0  0  0  0
  9 18  1  0  0  0  0
  9 23  1  0  0  0  0
 10 19  2  0  0  0  0
 10 34  1  0  0  0  0
 13 16  1  0  0  0  0
 13 35  1  0  0  0  0
 13 36  1  0  0  0  0
 14 15  1  0  0  0  0
 14 37  1  0  0  0  0
 14 38  1  0  0  0  0
 15 39  1  0  0  0  0
 15 40  1  0  0  0  0
 16 41  1  0  0  0  0
 16 42  1  0  0  0  0
 17 25  1  0  0  0  0
 17 26  2  0  0  0  0
 18 21  2  0  0  0  0
 18 43  1  0  0  0  0
 19 21  1  0  0  0  0
 19 22  1  0  0  0  0
 20 28  2  0  0  0  0
 20 44  1  0  0  0  0
 21 45  1  0  0  0  0
 23 27  1  0  0  0  0
 24 29  2  0  0  0  0
 24 46  1  0  0  0  0
 25 31  2  0  0  0  0
 25 47  1  0  0  0  0
 26 30  1  0  0  0  0
 26 48  1  0  0  0  0
 27 49  1  0  0  0  0
 27 50  1  0  0  0  0
 27 51  1  0  0  0  0
 28 29  1  0  0  0  0
 28 52  1  0  0  0  0
 29 53  1  0  0  0  0
 30 32  2  0  0  0  0
 30 54  1  0  0  0  0
 31 32  1  0  0  0  0
 31 55  1  0  0  0  0
 32 56  1  0  0  0  0
M  END
>  <$CLUSTER>
162

>  <INDEX>
107851

$$$$
