Maybridge HTS 07015
 OpenBabel04062209303D

 45 47  0  0  0  0  0  0  0  0999 V2000
    1.5630   -0.6600   -1.8160 C   0  0  0  0  0  0  0  0  0  0  0  0
    4.0080   -0.6960   -1.8430 C   0  0  0  0  0  0  0  0  0  0  0  0
    1.5470   -1.0310   -3.1630 O   0  0  0  0  0  0  0  0  0  0  0  0
    2.7350   -1.2400   -3.8680 C   0  0  0  0  0  0  0  0  0  0  0  0
    2.7590   -0.4830   -1.1240 C   0  0  0  0  0  0  0  0  0  0  0  0
    3.9930   -1.0500   -3.1260 C   0  0  0  0  0  0  0  0  0  0  0  0
   -2.1990    0.0100    0.4520 C   0  0  0  0  0  0  0  0  0  0  0  0
    0.3360   -0.4680   -1.1720 C   0  0  0  0  0  0  0  0  0  0  0  0
   -0.8920    0.1200    0.9090 N   0  0  0  0  0  0  0  0  0  0  0  0
   -4.6420    0.2230    1.1150 C   0  0  0  0  0  0  0  0  0  0  0  0
    2.7310   -0.1130    0.2180 C   0  0  0  0  0  0  0  0  0  0  0  0
   -6.4390   -1.4940    0.2370 C   0  0  0  0  0  0  0  0  0  0  0  0
    0.2980   -0.0960    0.1750 C   0  0  0  0  0  0  0  0  0  0  0  0
    2.7370   -1.5660   -5.0490 O   0  0  0  0  0  0  0  0  0  0  0  0
   -3.1880    0.3230    1.5480 C   0  0  0  0  0  0  0  0  0  0  0  0
   -2.5830   -0.2950   -0.6720 O   0  0  0  0  0  0  0  0  0  0  0  0
   -5.0350   -1.1960    0.6620 C   0  0  0  0  0  0  0  0  0  0  0  0
   -7.2020   -1.8970    1.1590 O   0  0  0  0  0  0  0  0  0  0  0  0
    1.5080    0.0790    0.8630 C   0  0  0  0  0  0  0  0  0  0  0  0
   -6.6830   -1.3060   -0.9880 O   0  5  0  0  0  0  0  0  0  0  0  0
    5.2830   -0.5010   -1.0810 C   0  0  0  0  0  0  0  0  0  0  0  0
   -5.0040    1.2230    0.0000 C   0  0  0  0  0  0  0  0  0  0  0  0
   -5.5420    0.5740    2.3520 C   0  0  0  0  0  0  0  0  0  0  0  0
   -6.8740    1.0600    1.6460 C   0  0  0  0  0  0  0  0  0  0  0  0
   -6.5260    1.4540    0.2140 C   0  0  0  0  0  0  0  0  0  0  0  0
    4.9310   -1.2020   -3.6380 H   0  0  0  0  0  0  0  0  0  0  0  0
   -0.5860   -0.6080   -1.7180 H   0  0  0  0  0  0  0  0  0  0  0  0
   -0.7780    0.3850    1.8770 H   0  0  0  0  0  0  0  0  0  0  0  0
    3.6550    0.0250    0.7600 H   0  0  0  0  0  0  0  0  0  0  0  0
   -3.0030    1.3390    1.8970 H   0  0  0  0  0  0  0  0  0  0  0  0
   -3.0250   -0.3780    2.3670 H   0  0  0  0  0  0  0  0  0  0  0  0
   -4.8120   -1.8630    1.4950 H   0  0  0  0  0  0  0  0  0  0  0  0
   -4.3930   -1.4430   -0.1840 H   0  0  0  0  0  0  0  0  0  0  0  0
    1.4930    0.3660    1.9040 H   0  0  0  0  0  0  0  0  0  0  0  0
    5.0530   -0.2150   -0.0550 H   0  0  0  0  0  0  0  0  0  0  0  0
    5.8720    0.2850   -1.5540 H   0  0  0  0  0  0  0  0  0  0  0  0
    5.8520   -1.4310   -1.0800 H   0  0  0  0  0  0  0  0  0  0  0  0
   -4.8070    0.7990   -0.9850 H   0  0  0  0  0  0  0  0  0  0  0  0
   -4.4470    2.1530    0.1130 H   0  0  0  0  0  0  0  0  0  0  0  0
   -5.0990    1.3670    2.9550 H   0  0  0  0  0  0  0  0  0  0  0  0
   -5.7190   -0.3010    2.9770 H   0  0  0  0  0  0  0  0  0  0  0  0
   -7.2830    1.9190    2.1780 H   0  0  0  0  0  0  0  0  0  0  0  0
   -7.6070    0.2530    1.6410 H   0  0  0  0  0  0  0  0  0  0  0  0
   -7.0940    0.8400   -0.4850 H   0  0  0  0  0  0  0  0  0  0  0  0
   -6.7660    2.5050    0.0520 H   0  0  0  0  0  0  0  0  0  0  0  0
  1  3  1  0  0  0  0
  1  5  2  0  0  0  0
  1  8  1  0  0  0  0
  2  5  1  0  0  0  0
  2  6  2  0  0  0  0
  2 21  1  0  0  0  0
  3  4  1  0  0  0  0
  4  6  1  0  0  0  0
  4 14  2  0  0  0  0
  5 11  1  0  0  0  0
  6 26  1  0  0  0  0
  7  9  1  0  0  0  0
  7 15  1  0  0  0  0
  7 16  2  0  0  0  0
  8 13  2  0  0  0  0
  8 27  1  0  0  0  0
  9 13  1  0  0  0  0
  9 28  1  0  0  0  0
 10 15  1  0  0  0  0
 10 17  1  0  0  0  0
 10 22  1  0  0  0  0
 10 23  1  0  0  0  0
 11 19  2  0  0  0  0
 11 29  1  0  0  0  0
 12 17  1  0  0  0  0
 12 18  2  0  0  0  0
 12 20  1  0  0  0  0
 13 19  1  0  0  0  0
 15 30  1  0  0  0  0
 15 31  1  0  0  0  0
 17 32  1  0  0  0  0
 17 33  1  0  0  0  0
 19 34  1  0  0  0  0
 21 35  1  0  0  0  0
 21 36  1  0  0  0  0
 21 37  1  0  0  0  0
 22 25  1  0  0  0  0
 22 38  1  0  0  0  0
 22 39  1  0  0  0  0
 23 24  1  0  0  0  0
 23 40  1  0  0  0  0
 23 41  1  0  0  0  0
 24 25  1  0  0  0  0
 24 42  1  0  0  0  0
 24 43  1  0  0  0  0
 25 44  1  0  0  0  0
 25 45  1  0  0  0  0
M  CHG  1  20  -1
M  END
>  <$CLUSTER>
899

>  <INDEX>
551863

$$$$
