Tripos 1554-03007
 OpenBabel04062209303D

 34 35  0  0  0  0  0  0  0  0999 V2000
    0.7130    0.6750    0.2720 S   0  0  0  0  0  0  0  0  0  0  0  0
   -0.7380   -0.1800    0.3130 N   0  0  0  0  0  0  0  0  0  0  0  0
    0.6240    1.5020   -1.3140 C   0  0  0  0  0  0  0  0  0  0  0  0
   -2.3380   -3.3830   -0.8660 C   0  0  0  0  0  0  0  0  0  0  0  0
   -2.1100   -2.1180   -0.1940 C   0  0  0  0  0  0  0  0  0  0  0  0
    0.6480    1.6750    1.3260 O   0  0  0  0  0  0  0  0  0  0  0  0
    1.8020   -0.2870    0.2480 O   0  0  0  0  0  0  0  0  0  0  0  0
   -3.4180   -4.2040   -0.5210 C   0  0  0  0  0  0  0  0  0  0  0  0
   -0.9400   -1.2660   -0.6510 C   0  0  0  0  0  0  0  0  0  0  0  0
   -3.0490   -1.7670    0.7710 C   0  0  0  0  0  0  0  0  0  0  0  0
    1.1520    0.8630   -2.4310 C   0  0  0  0  0  0  0  0  0  0  0  0
    0.0950    2.7810   -1.3850 C   0  0  0  0  0  0  0  0  0  0  0  0
   -4.3090   -3.8060    0.4730 C   0  0  0  0  0  0  0  0  0  0  0  0
   -1.2950   -3.9420   -2.1290 Cl  0  0  0  0  0  0  0  0  0  0  0  0
    0.5770    2.8030   -3.7540 C   0  0  0  0  0  0  0  0  0  0  0  0
   -4.1270   -2.5860    1.1160 C   0  0  0  0  0  0  0  0  0  0  0  0
    1.1200    1.5210   -3.6620 C   0  0  0  0  0  0  0  0  0  0  0  0
    0.0650    3.4330   -2.6180 C   0  0  0  0  0  0  0  0  0  0  0  0
   -5.3050   -4.6490    0.7460 F   0  0  0  0  0  0  0  0  0  0  0  0
    0.4970    3.5550   -4.9130 O   0  0  0  0  0  0  0  0  0  0  0  0
    1.0060    2.9630   -6.1030 C   0  0  0  0  0  0  0  0  0  0  0  0
   -1.4820    0.4880    0.1690 H   0  0  0  0  0  0  0  0  0  0  0  0
   -3.5610   -5.1480   -1.0260 H   0  0  0  0  0  0  0  0  0  0  0  0
   -0.0400   -1.8790   -0.7050 H   0  0  0  0  0  0  0  0  0  0  0  0
   -1.1540   -0.8470   -1.6340 H   0  0  0  0  0  0  0  0  0  0  0  0
   -2.9400   -0.8190    1.2760 H   0  0  0  0  0  0  0  0  0  0  0  0
    1.5790   -0.1250   -2.3470 H   0  0  0  0  0  0  0  0  0  0  0  0
   -0.2880    3.2660   -0.4990 H   0  0  0  0  0  0  0  0  0  0  0  0
   -4.8200   -2.2720    1.8830 H   0  0  0  0  0  0  0  0  0  0  0  0
    1.5160    1.0380   -4.5430 H   0  0  0  0  0  0  0  0  0  0  0  0
   -0.3540    4.4250   -2.6940 H   0  0  0  0  0  0  0  0  0  0  0  0
    0.8820    3.6560   -6.9350 H   0  0  0  0  0  0  0  0  0  0  0  0
    0.4610    2.0420   -6.3130 H   0  0  0  0  0  0  0  0  0  0  0  0
    2.0640    2.7370   -5.9730 H   0  0  0  0  0  0  0  0  0  0  0  0
  1  2  1  0  0  0  0
  1  3  1  0  0  0  0
  1  6  2  0  0  0  0
  1  7  2  0  0  0  0
  2  9  1  0  0  0  0
  2 22  1  0  0  0  0
  3 11  2  0  0  0  0
  3 12  1  0  0  0  0
  4  5  2  0  0  0  0
  4  8  1  0  0  0  0
  4 14  1  0  0  0  0
  5  9  1  0  0  0  0
  5 10  1  0  0  0  0
  8 13  2  0  0  0  0
  8 23  1  0  0  0  0
  9 24  1  0  0  0  0
  9 25  1  0  0  0  0
 10 16  2  0  0  0  0
 10 26  1  0  0  0  0
 11 17  1  0  0  0  0
 11 27  1  0  0  0  0
 12 18  2  0  0  0  0
 12 28  1  0  0  0  0
 13 16  1  0  0  0  0
 13 19  1  0  0  0  0
 15 17  2  0  0  0  0
 15 18  1  0  0  0  0
 15 20  1  0  0  0  0
 16 29  1  0  0  0  0
 17 30  1  0  0  0  0
 18 31  1  0  0  0  0
 20 21  1  0  0  0  0
 21 32  1  0  0  0  0
 21 33  1  0  0  0  0
 21 34  1  0  0  0  0
M  END
>  <$CLUSTER>
92

>  <INDEX>
466465

$$$$
