Asinex ASN 06116813
 OpenBabel04062209303D

 56 60  0  0  0  0  0  0  0  0999 V2000
    1.0680    0.5360   -0.4430 N   0  0  0  0  0  0  0  0  0  0  0  0
    0.2310    0.8730    0.6010 C   0  0  0  0  0  0  0  0  0  0  0  0
   -0.8890    0.0350    0.9090 C   0  0  0  0  0  0  0  0  0  0  0  0
    2.0410    1.4560   -0.5530 N   0  0  0  0  0  0  0  0  0  0  0  0
    1.8010    2.3360    0.4110 N   0  0  0  0  0  0  0  0  0  0  0  0
    0.6840    1.9890    1.1350 N   0  0  0  0  0  0  0  0  0  0  0  0
    0.9190   -0.5940   -1.2540 C   0  0  0  0  0  0  0  0  0  0  0  0
   -1.0700   -1.0750    0.1590 C   0  0  0  0  0  0  0  0  0  0  0  0
   -2.6300    1.5330    1.8200 N   0  0  0  0  0  0  0  0  0  0  0  0
   -2.2950    2.8050    2.2990 C   0  0  0  0  0  0  0  0  0  0  0  0
   -0.1730   -1.4250   -0.9540 C   0  0  0  0  0  0  0  0  0  0  0  0
   -1.8430    0.3240    2.0510 C   0  0  0  0  0  0  0  0  0  0  0  0
   -1.0160    2.9140    3.0930 C   0  0  0  0  0  0  0  0  0  0  0  0
   -3.8580    1.3850    1.0280 C   0  0  0  0  0  0  0  0  0  0  0  0
   -2.9820    3.8140    2.1190 O   0  0  0  0  0  0  0  0  0  0  0  0
   -0.3820    4.1460    3.1240 C   0  0  0  0  0  0  0  0  0  0  0  0
    1.7980   -0.8810   -2.2970 C   0  0  0  0  0  0  0  0  0  0  0  0
    0.8040    4.2900    3.8460 C   0  0  0  0  0  0  0  0  0  0  0  0
   -5.0550    1.0550    1.9060 C   0  0  0  0  0  0  0  0  0  0  0  0
   -0.3760   -2.5700   -1.7270 C   0  0  0  0  0  0  0  0  0  0  0  0
   -0.4950    1.8200    3.7750 C   0  0  0  0  0  0  0  0  0  0  0  0
    1.3510    5.5570    3.8060 O   0  0  0  0  0  0  0  0  0  0  0  0
    0.4990   -2.8690   -2.7760 C   0  0  0  0  0  0  0  0  0  0  0  0
    0.6920    1.9700    4.4980 C   0  0  0  0  0  0  0  0  0  0  0  0
    1.5800   -2.0280   -3.0590 C   0  0  0  0  0  0  0  0  0  0  0  0
    2.9440    0.0160   -2.5930 C   0  0  0  0  0  0  0  0  0  0  0  0
    1.3420    3.2020    4.5310 C   0  0  0  0  0  0  0  0  0  0  0  0
   -5.9500    2.0610    2.2930 C   0  0  0  0  0  0  0  0  0  0  0  0
   -5.2670   -0.2580    2.3490 C   0  0  0  0  0  0  0  0  0  0  0  0
    2.5620    5.7600    4.5250 C   0  0  0  0  0  0  0  0  0  0  0  0
   -6.3710   -0.5640    3.1490 C   0  0  0  0  0  0  0  0  0  0  0  0
   -7.0540    1.7530    3.0940 C   0  0  0  0  0  0  0  0  0  0  0  0
   -7.2650    0.4410    3.5190 C   0  0  0  0  0  0  0  0  0  0  0  0
   -1.9010   -1.7270    0.3840 H   0  0  0  0  0  0  0  0  0  0  0  0
   -1.2660    0.4500    2.9670 H   0  0  0  0  0  0  0  0  0  0  0  0
   -2.5220   -0.5210    2.1630 H   0  0  0  0  0  0  0  0  0  0  0  0
   -3.7180    0.5820    0.3050 H   0  0  0  0  0  0  0  0  0  0  0  0
   -4.0530    2.3190    0.5000 H   0  0  0  0  0  0  0  0  0  0  0  0
   -0.8020    4.9880    2.5940 H   0  0  0  0  0  0  0  0  0  0  0  0
   -1.2090   -3.2240   -1.5150 H   0  0  0  0  0  0  0  0  0  0  0  0
   -1.0010    0.8660    3.7470 H   0  0  0  0  0  0  0  0  0  0  0  0
    0.3390   -3.7550   -3.3720 H   0  0  0  0  0  0  0  0  0  0  0  0
    1.1070    1.1280    5.0330 H   0  0  0  0  0  0  0  0  0  0  0  0
    2.2490   -2.2680   -3.8720 H   0  0  0  0  0  0  0  0  0  0  0  0
    2.9430    0.8510   -1.8920 H   0  0  0  0  0  0  0  0  0  0  0  0
    2.8550    0.3960   -3.6110 H   0  0  0  0  0  0  0  0  0  0  0  0
    3.8760   -0.5400   -2.4940 H   0  0  0  0  0  0  0  0  0  0  0  0
    2.2610    3.3140    5.0870 H   0  0  0  0  0  0  0  0  0  0  0  0
   -5.7870    3.0790    1.9710 H   0  0  0  0  0  0  0  0  0  0  0  0
   -4.5730   -1.0370    2.0700 H   0  0  0  0  0  0  0  0  0  0  0  0
    2.8830    6.7950    4.4110 H   0  0  0  0  0  0  0  0  0  0  0  0
    3.3320    5.0960    4.1340 H   0  0  0  0  0  0  0  0  0  0  0  0
    2.3980    5.5450    5.5810 H   0  0  0  0  0  0  0  0  0  0  0  0
   -6.5320   -1.5790    3.4810 H   0  0  0  0  0  0  0  0  0  0  0  0
   -7.7440    2.5320    3.3840 H   0  0  0  0  0  0  0  0  0  0  0  0
   -8.1200    0.2030    4.1340 H   0  0  0  0  0  0  0  0  0  0  0  0
  1  2  1  0  0  0  0
  1  4  1  0  0  0  0
  1  7  1  0  0  0  0
  2  3  1  0  0  0  0
  2  6  2  0  0  0  0
  3  8  2  0  0  0  0
  3 12  1  0  0  0  0
  4  5  2  0  0  0  0
  5  6  1  0  0  0  0
  7 11  2  0  0  0  0
  7 17  1  0  0  0  0
  8 11  1  0  0  0  0
  8 34  1  0  0  0  0
  9 10  1  0  0  0  0
  9 12  1  0  0  0  0
  9 14  1  0  0  0  0
 10 13  1  0  0  0  0
 10 15  2  0  0  0  0
 11 20  1  0  0  0  0
 12 35  1  0  0  0  0
 12 36  1  0  0  0  0
 13 16  2  0  0  0  0
 13 21  1  0  0  0  0
 14 19  1  0  0  0  0
 14 37  1  0  0  0  0
 14 38  1  0  0  0  0
 16 18  1  0  0  0  0
 16 39  1  0  0  0  0
 17 25  2  0  0  0  0
 17 26  1  0  0  0  0
 18 22  1  0  0  0  0
 18 27  2  0  0  0  0
 19 28  1  0  0  0  0
 19 29  2  0  0  0  0
 20 23  2  0  0  0  0
 20 40  1  0  0  0  0
 21 24  2  0  0  0  0
 21 41  1  0  0  0  0
 22 30  1  0  0  0  0
 23 25  1  0  0  0  0
 23 42  1  0  0  0  0
 24 27  1  0  0  0  0
 24 43  1  0  0  0  0
 25 44  1  0  0  0  0
 26 45  1  0  0  0  0
 26 46  1  0  0  0  0
 26 47  1  0  0  0  0
 27 48  1  0  0  0  0
 28 32  2  0  0  0  0
 28 49  1  0  0  0  0
 29 31  1  0  0  0  0
 29 50  1  0  0  0  0
 30 51  1  0  0  0  0
 30 52  1  0  0  0  0
 30 53  1  0  0  0  0
 31 33  2  0  0  0  0
 31 54  1  0  0  0  0
 32 33  1  0  0  0  0
 32 55  1  0  0  0  0
 33 56  1  0  0  0  0
M  END
>  <$CLUSTER>
245

>  <INDEX>
154751

$$$$
