Tripos 1559-05871
 OpenBabel04062209303D

 34 35  0  0  1  0  0  0  0  0999 V2000
    1.7470    0.0250   -0.2700 S   0  0  0  0  0  0  0  0  0  0  0  0
    0.0430   -0.1500    0.1250 C   0  0  0  0  0  0  0  0  0  0  0  0
    2.5180   -1.1410    0.6390 N   0  0  0  0  0  0  0  0  0  0  0  0
   -0.9040    0.6860   -0.4710 C   0  0  0  0  0  0  0  0  0  0  0  0
   -0.3700   -1.1300    1.0390 C   0  0  0  0  0  0  0  0  0  0  0  0
   -2.2600    0.5370   -0.1480 C   0  0  0  0  0  0  0  0  0  0  0  0
    1.9280   -0.3500   -1.6610 O   0  0  0  0  0  0  0  0  0  0  0  0
    2.1970    1.3080    0.2370 O   0  0  0  0  0  0  0  0  0  0  0  0
   -2.6660   -0.4390    0.7620 C   0  0  0  0  0  0  0  0  0  0  0  0
   -1.7210   -1.2710    1.3550 C   0  0  0  0  0  0  0  0  0  0  0  0
    2.2690   -2.6320    0.3710 C   0  0  1  0  0  0  0  0  0  0  0  0
   -0.5120    1.9250   -1.6090 Cl  0  0  0  0  0  0  0  0  0  0  0  0
    2.5650   -0.9990    2.1580 C   0  0  0  0  0  0  0  0  0  0  0  0
   -4.3190   -0.6000    1.1360 Cl  0  0  0  0  0  0  0  0  0  0  0  0
    3.5430   -3.2190   -0.2400 C   0  0  0  0  0  0  0  0  0  0  0  0
    3.6820   -2.8010   -1.5930 O   0  0  0  0  0  0  0  0  0  0  0  0
    2.7430   -2.4050    2.7090 C   0  0  0  0  0  0  0  0  0  0  0  0
    1.9430   -3.2480    1.7340 C   0  0  0  0  0  0  0  0  0  0  0  0
   -2.1500   -2.3170    2.3320 C   0  0  0  0  0  0  0  0  0  0  0  0
    0.3610   -1.7780    1.5000 H   0  0  0  0  0  0  0  0  0  0  0  0
   -2.9950    1.1820   -0.6070 H   0  0  0  0  0  0  0  0  0  0  0  0
    1.4520   -2.8250   -0.3240 H   0  0  0  0  0  0  0  0  0  0  0  0
    3.4040   -0.3680    2.4530 H   0  0  0  0  0  0  0  0  0  0  0  0
    1.6360   -0.5640    2.5260 H   0  0  0  0  0  0  0  0  0  0  0  0
    3.4900   -4.3070   -0.2040 H   0  0  0  0  0  0  0  0  0  0  0  0
    4.4060   -2.8780    0.3320 H   0  0  0  0  0  0  0  0  0  0  0  0
    2.9120   -3.1130   -2.0740 H   0  0  0  0  0  0  0  0  0  0  0  0
    3.7930   -2.6960    2.7110 H   0  0  0  0  0  0  0  0  0  0  0  0
    2.3420   -2.4850    3.7190 H   0  0  0  0  0  0  0  0  0  0  0  0
    0.8760   -3.1800    1.9460 H   0  0  0  0  0  0  0  0  0  0  0  0
    2.2560   -4.2910    1.7740 H   0  0  0  0  0  0  0  0  0  0  0  0
   -1.2760   -2.8640    2.6860 H   0  0  0  0  0  0  0  0  0  0  0  0
   -2.8390   -3.0080    1.8460 H   0  0  0  0  0  0  0  0  0  0  0  0
   -2.6480   -1.8420    3.1770 H   0  0  0  0  0  0  0  0  0  0  0  0
  1  2  1  0  0  0  0
  1  3  1  0  0  0  0
  1  7  2  0  0  0  0
  1  8  2  0  0  0  0
  2  4  1  0  0  0  0
  2  5  2  0  0  0  0
  3 11  1  0  0  0  0
  3 13  1  0  0  0  0
  4  6  2  0  0  0  0
  4 12  1  0  0  0  0
  5 10  1  0  0  0  0
  5 20  1  0  0  0  0
  6  9  1  0  0  0  0
  6 21  1  0  0  0  0
  9 10  2  0  0  0  0
  9 14  1  0  0  0  0
 10 19  1  0  0  0  0
 11 15  1  0  0  0  0
 11 18  1  0  0  0  0
 11 22  1  6  0  0  0
 13 17  1  0  0  0  0
 13 23  1  0  0  0  0
 13 24  1  0  0  0  0
 15 16  1  0  0  0  0
 15 25  1  0  0  0  0
 15 26  1  0  0  0  0
 16 27  1  0  0  0  0
 17 18  1  0  0  0  0
 17 28  1  0  0  0  0
 17 29  1  0  0  0  0
 18 30  1  0  0  0  0
 18 31  1  0  0  0  0
 19 32  1  0  0  0  0
 19 33  1  0  0  0  0
 19 34  1  0  0  0  0
M  END
>  <$CLUSTER>
725

>  <INDEX>
474190

$$$$
